@<TRIPOS>MOLECULE
ABAQED
    88    92     1     0     0
SMALL
NO_CHARGES
****
Generated from the CSD

@<TRIPOS>ATOM
     1 Cl1      9.7216   0.1408  20.4608   Cl        1 RES1   0.0000
     2 O1       5.3303   1.4284  15.6708   O.2       1 RES1   0.0000
     3 O2       1.0353   1.2296  22.0134   O.3       1 RES1   0.0000
     4 O3      -1.3394   3.9496  16.9019   O.2       1 RES1   0.0000
     5 O4       0.1027   2.8027  15.6678   O.3       1 RES1   0.0000
     6 O5       2.0458   0.3825   9.0948   O.2       1 RES1   0.0000
     7 O6       4.8346   4.9281   4.0960   O.3       1 RES1   0.0000
     8 N1       3.9365   1.9861  17.3803   N.am      1 RES1   0.0000
     9 N2       3.9149   1.6174   9.5246   N.am      1 RES1   0.0000
    10 C1       6.4462   1.8375  18.9940   C.ar      1 RES1   0.0000
    11 H1       5.8559   2.5118  19.2422   H         1 RES1   0.0000
    12 C2       7.5344   1.5559  19.7878   C.ar      1 RES1   0.0000
    13 H2       7.6927   2.0506  20.5601   H         1 RES1   0.0000
    14 C3       8.3865   0.5395  19.4348   C.ar      1 RES1   0.0000
    15 C4       8.1898  -0.1782  18.2795   C.ar      1 RES1   0.0000
    16 H3       8.7797  -0.8584  18.0420   H         1 RES1   0.0000
    17 C5       7.1102   0.1216  17.4729   C.ar      1 RES1   0.0000
    18 H4       6.9770  -0.3534  16.6856   H         1 RES1   0.0000
    19 C6       6.2237   1.1232  17.8302   C.ar      1 RES1   0.0000
    20 C7       5.1471   1.4890  16.8696   C.2       1 RES1   0.0000
    21 C8       3.3311   1.6519  18.6186   C.ar      1 RES1   0.0000
    22 C9       3.6202   0.6635  19.5417   C.ar      1 RES1   0.0000
    23 H5       4.3376   0.0866  19.4176   H         1 RES1   0.0000
    24 C10      2.8145   0.5582  20.6521   C.ar      1 RES1   0.0000
    25 H6       2.9961  -0.0955  21.2897   H         1 RES1   0.0000
    26 C11      1.7245   1.4181  20.8402   C.ar      1 RES1   0.0000
    27 C12      1.3831   2.3371  19.8783   C.ar      1 RES1   0.0000
    28 H7       0.6292   2.8721  19.9782   H         1 RES1   0.0000
    29 C13      2.1946   2.4498  18.7465   C.ar      1 RES1   0.0000
    30 C14      2.0938   3.2664  17.5576   C.2       1 RES1   0.0000
    31 C15      3.1306   2.9607  16.7438   C.2       1 RES1   0.0000
    32 C16      3.4661   3.5218  15.4062   C.3       1 RES1   0.0000
    33 H8       4.3826   3.8039  15.3976   H         1 RES1   0.0000
    34 H9       2.8980   4.2739  15.2222   H         1 RES1   0.0000
    35 H10      3.3316   2.8490  14.7344   H         1 RES1   0.0000
    36 C17      0.9890   4.2415  17.2996   C.3       1 RES1   0.0000
    37 H11      1.3309   4.9576  16.7412   H         1 RES1   0.0000
    38 H12      0.7172   4.6323  18.1447   H         1 RES1   0.0000
    39 C18     -0.2216   3.6488  16.6314   C.2       1 RES1   0.0000
    40 C19     -0.9757   2.1953  14.8991   C.3       1 RES1   0.0000
    41 H13     -1.5336   2.8819  14.5012   H         1 RES1   0.0000
    42 H14     -1.5284   1.6420  15.4725   H         1 RES1   0.0000
    43 C20     -0.3379   1.3625  13.8313   C.3       1 RES1   0.0000
    44 H15     -1.0327   0.8840  13.3502   H         1 RES1   0.0000
    45 H16      0.2371   0.7039  14.2509   H         1 RES1   0.0000
    46 C21      0.4811   2.1653  12.8367   C.3       1 RES1   0.0000
    47 H17     -0.1011   2.8037  12.3938   H         1 RES1   0.0000
    48 H18      1.1564   2.6664  13.3181   H         1 RES1   0.0000
    49 C22      1.1606   1.3118  11.7862   C.3       1 RES1   0.0000
    50 H19      0.4803   0.8565  11.2663   H         1 RES1   0.0000
    51 H20      1.6938   0.6345  12.2312   H         1 RES1   0.0000
    52 C23      2.0542   2.0959  10.8414   C.3       1 RES1   0.0000
    53 H21      1.5176   2.8121  10.4405   H         1 RES1   0.0000
    54 C24      2.6240   1.2507   9.7195   C.2       1 RES1   0.0000
    55 C25      4.3347   2.7481  10.3592   C.3       1 RES1   0.0000
    56 H22      4.2654   3.5829   9.8500   H         1 RES1   0.0000
    57 C26      3.2924   2.7289  11.4739   C.3       1 RES1   0.0000
    58 H23      3.0991   3.6291  11.7820   H         1 RES1   0.0000
    59 H24      3.6014   2.2007  12.2270   H         1 RES1   0.0000
    60 C27      5.7616   2.5694  10.8791   C.3       1 RES1   0.0000
    61 H25      5.8302   1.7100  11.3241   H         1 RES1   0.0000
    62 H26      6.3737   2.5635  10.1260   H         1 RES1   0.0000
    63 C28      6.1644   3.6277  11.8140   C.2       1 RES1   0.0000
    64 H27      6.2028   4.4876  11.4653   H         1 RES1   0.0000
    65 C29      6.4675   3.5095  13.0399   C.2       1 RES1   0.0000
    66 H28      6.4479   2.6718  13.4464   H         1 RES1   0.0000
    67 H29      6.7085   4.2592  13.5342   H         1 RES1   0.0000
    68 C30      4.6567   1.1695   8.3396   C.3       1 RES1   0.0000
    69 H30      4.2481   0.3583   7.9994   H         1 RES1   0.0000
    70 H31      5.5674   0.9559   8.6006   H         1 RES1   0.0000
    71 C31      4.6912   2.2076   7.2335   C.ar      1 RES1   0.0000
    72 C32      3.5818   2.4055   6.4376   C.ar      1 RES1   0.0000
    73 H32      2.8068   1.9221   6.6173   H         1 RES1   0.0000
    74 C33      3.5829   3.2915   5.3914   C.ar      1 RES1   0.0000
    75 H33      2.8213   3.3988   4.8672   H         1 RES1   0.0000
    76 C34      4.7185   4.0190   5.1240   C.ar      1 RES1   0.0000
    77 C35      5.8412   3.8487   5.9113   C.ar      1 RES1   0.0000
    78 H34      6.6127   4.3399   5.7401   H         1 RES1   0.0000
    79 C36      5.8097   2.9484   6.9447   C.ar      1 RES1   0.0000
    80 H35      6.5696   2.8362   7.4688   H         1 RES1   0.0000
    81 C37      3.6920   5.1412   3.2755   C.3       1 RES1   0.0000
    82 H36      3.9001   5.7870   2.5973   H         1 RES1   0.0000
    83 H37      2.9661   5.4666   3.8146   H         1 RES1   0.0000
    84 H38      3.4363   4.3138   2.8604   H         1 RES1   0.0000
    85 C38      0.2459   2.3051  22.4685   C.3       1 RES1   0.0000
    86 H39     -0.5203   2.4035  21.8994   H         1 RES1   0.0000
    87 H40      0.7650   3.1128  22.4514   H         1 RES1   0.0000
    88 H41     -0.0443   2.1313  23.3671   H         1 RES1   0.0000
@<TRIPOS>BOND
     1     1    14    1
     2     2    20    2
     3     3    26    1
     4     4    39    2
     5     5    39    1
     6     6    54    2
     7     7    76    1
     8     8    20   am
     9     9    54   am
    10    10    11    1
    11    12    10   ar
    12    13    12    1
    13    14    12   ar
    14    15    14   ar
    15    16    15    1
    16    17    15   ar
    17    18    17    1
    18    19    10   ar
    19    20    19    1
    20    21     8    1
    21    22    21   ar
    22    23    22    1
    23    24    22   ar
    24    25    24    1
    25    26    24   ar
    26    27    26   ar
    27    28    27    1
    28    29    21   ar
    29    30    29    1
    30    31     8    1
    31    32    31    1
    32    33    32    1
    33    34    32    1
    34    35    32    1
    35    36    30    1
    36    37    36    1
    37    38    36    1
    38    39    36    1
    39    40     5    1
    40    41    40    1
    41    42    40    1
    42    43    40    1
    43    44    43    1
    44    45    43    1
    45    46    43    1
    46    47    46    1
    47    48    46    1
    48    49    46    1
    49    50    49    1
    50    51    49    1
    51    52    49    1
    52    53    52    1
    53    54    52    1
    54    55     9    1
    55    56    55    1
    56    57    52    1
    57    58    57    1
    58    59    57    1
    59    60    55    1
    60    61    60    1
    61    62    60    1
    62    63    60    1
    63    64    63    1
    64    65    63    2
    65    66    65    1
    66    67    65    1
    67    68     9    1
    68    69    68    1
    69    70    68    1
    70    71    68    1
    71    72    71   ar
    72    73    72    1
    73    74    72   ar
    74    75    74    1
    75    76    74   ar
    76    77    76   ar
    77    78    77    1
    78    79    71   ar
    79    80    79    1
    80    81     7    1
    81    82    81    1
    82    83    81    1
    83    84    81    1
    84    85     3    1
    85    86    85    1
    86    87    85    1
    87    88    85    1
    88    17    19   ar
    89    27    29   ar
    90    30    31    2
    91    55    57    1
    92    77    79   ar
@<TRIPOS>SUBSTRUCTURE
     1 RES1        1 GROUP             0 ****  ****    0  
@<TRIPOS>CRYSIN
   16.3026    4.9222   21.4116   90.0000   92.2900   90.0000     4     1
