@<TRIPOS>MOLECULE
01
    34    36     1     0     0
SMALL
NO_CHARGES
****
Generated from the CSD

@<TRIPOS>ATOM
     1 Cl1      9.7216   0.1408  20.4608   Cl        1 RES1   0.0000
     2 O1       5.3303   1.4284  15.6708   O.2       1 RES1   0.0000
     3 O2       1.0353   1.2296  22.0134   O.3       1 RES1   0.0000
     4 N1       3.9365   1.9861  17.3803   N.am      1 RES1   0.0000
     5 C1       6.4462   1.8375  18.9940   C.ar      1 RES1   0.0000
     6 H1       5.8559   2.5118  19.2422   H         1 RES1   0.0000
     7 C2       7.5344   1.5559  19.7878   C.ar      1 RES1   0.0000
     8 H2       7.6927   2.0506  20.5601   H         1 RES1   0.0000
     9 C3       8.3865   0.5395  19.4348   C.ar      1 RES1   0.0000
    10 C4       8.1898  -0.1782  18.2795   C.ar      1 RES1   0.0000
    11 H3       8.7797  -0.8584  18.0420   H         1 RES1   0.0000
    12 C5       7.1102   0.1216  17.4729   C.ar      1 RES1   0.0000
    13 H4       6.9770  -0.3534  16.6856   H         1 RES1   0.0000
    14 C6       6.2237   1.1232  17.8302   C.ar      1 RES1   0.0000
    15 C7       5.1471   1.4890  16.8696   C.2       1 RES1   0.0000
    16 C8       3.3311   1.6519  18.6186   C.ar      1 RES1   0.0000
    17 C9       3.6202   0.6635  19.5417   C.ar      1 RES1   0.0000
    18 H5       4.3376   0.0866  19.4176   H         1 RES1   0.0000
    19 C10      2.8145   0.5582  20.6521   C.ar      1 RES1   0.0000
    20 H6       2.9961  -0.0955  21.2897   H         1 RES1   0.0000
    21 C11      1.7245   1.4181  20.8402   C.ar      1 RES1   0.0000
    22 C12      1.3831   2.3371  19.8783   C.ar      1 RES1   0.0000
    23 H7       0.6292   2.8721  19.9782   H         1 RES1   0.0000
    24 C13      2.1946   2.4498  18.7465   C.ar      1 RES1   0.0000
    25 C14      2.0938   3.2664  17.5576   C.2       1 RES1   0.0000
    26 C15      3.1306   2.9607  16.7438   C.2       1 RES1   0.0000
    27 C16      3.4661   3.5218  15.4062   C.3       1 RES1   0.0000
    28 H8       4.3826   3.8039  15.3976   H         1 RES1   0.0000
    29 H9       2.8980   4.2739  15.2222   H         1 RES1   0.0000
    30 H10      3.3316   2.8490  14.7344   H         1 RES1   0.0000
    31 C38      0.2459   2.3051  22.4685   C.3       1 RES1   0.0000
    32 H39     -0.5203   2.4035  21.8994   H         1 RES1   0.0000
    33 H40      0.7650   3.1128  22.4514   H         1 RES1   0.0000
    34 H41     -0.0443   2.1313  23.3671   H         1 RES1   0.0000
@<TRIPOS>BOND
     1     1     9    1
     2     2    15    2
     3     3    21    1
     4     4    15   am
     5     5     6    1
     6     7     5   ar
     7     8     7    1
     8     9     7   ar
     9    10     9   ar
    10    11    10    1
    11    12    10   ar
    12    13    12    1
    13    14     5   ar
    14    15    14    1
    15    16     4    1
    16    17    16   ar
    17    18    17    1
    18    19    17   ar
    19    20    19    1
    20    21    19   ar
    21    22    21   ar
    22    23    22    1
    23    24    16   ar
    24    25    24    1
    25    26     4    1
    26    27    26    1
    27    28    27    1
    28    29    27    1
    29    30    27    1
    30    31     3    1
    31    32    31    1
    32    33    31    1
    33    34    31    1
    34    12    14   ar
    35    22    24   ar
    36    25    26    2
@<TRIPOS>SUBSTRUCTURE
     1 RES1        1 GROUP             0 ****  ****    0  
