@<TRIPOS>MOLECULE
02
    36    37     1     0     0
SMALL
NO_CHARGES
****
Generated from the CSD

@<TRIPOS>ATOM
     1 O5       2.0458   0.3825   9.0948   O.2       1 RES2   0.0000
     2 O6       4.8346   4.9281   4.0960   O.3       1 RES2   0.0000
     3 N2       3.9149   1.6174   9.5246   N.am      1 RES2   0.0000
     4 C23      2.0542   2.0959  10.8414   C.3       1 RES2   0.0000
     5 H21      1.5176   2.8121  10.4405   H         1 RES2   0.0000
     6 C24      2.6240   1.2507   9.7195   C.2       1 RES2   0.0000
     7 C25      4.3347   2.7481  10.3592   C.3       1 RES2   0.0000
     8 H22      4.2654   3.5829   9.8500   H         1 RES2   0.0000
     9 C26      3.2924   2.7289  11.4739   C.3       1 RES2   0.0000
    10 H23      3.0991   3.6291  11.7820   H         1 RES2   0.0000
    11 H24      3.6014   2.2007  12.2270   H         1 RES2   0.0000
    12 C27      5.7616   2.5694  10.8791   C.3       1 RES2   0.0000
    13 H25      5.8302   1.7100  11.3241   H         1 RES2   0.0000
    14 H26      6.3737   2.5635  10.1260   H         1 RES2   0.0000
    15 C28      6.1644   3.6277  11.8140   C.2       1 RES2   0.0000
    16 H27      6.2028   4.4876  11.4653   H         1 RES2   0.0000
    17 C29      6.4675   3.5095  13.0399   C.2       1 RES2   0.0000
    18 H28      6.4479   2.6718  13.4464   H         1 RES2   0.0000
    19 H29      6.7085   4.2592  13.5342   H         1 RES2   0.0000
    20 C30      4.6567   1.1695   8.3396   C.3       1 RES2   0.0000
    21 H30      4.2481   0.3583   7.9994   H         1 RES2   0.0000
    22 H31      5.5674   0.9559   8.6006   H         1 RES2   0.0000
    23 C31      4.6912   2.2076   7.2335   C.ar      1 RES2   0.0000
    24 C32      3.5818   2.4055   6.4376   C.ar      1 RES2   0.0000
    25 H32      2.8068   1.9221   6.6173   H         1 RES2   0.0000
    26 C33      3.5829   3.2915   5.3914   C.ar      1 RES2   0.0000
    27 H33      2.8213   3.3988   4.8672   H         1 RES2   0.0000
    28 C34      4.7185   4.0190   5.1240   C.ar      1 RES2   0.0000
    29 C35      5.8412   3.8487   5.9113   C.ar      1 RES2   0.0000
    30 H34      6.6127   4.3399   5.7401   H         1 RES2   0.0000
    31 C36      5.8097   2.9484   6.9447   C.ar      1 RES2   0.0000
    32 H35      6.5696   2.8362   7.4688   H         1 RES2   0.0000
    33 C37      3.6920   5.1412   3.2755   C.3       1 RES2   0.0000
    34 H36      3.9001   5.7870   2.5973   H         1 RES2   0.0000
    35 H37      2.9661   5.4666   3.8146   H         1 RES2   0.0000
    36 H38      3.4363   4.3138   2.8604   H         1 RES2   0.0000
@<TRIPOS>BOND
     1     1     6    2
     2     2    28    1
     3     3     6   am
     4     5     4    1
     5     6     4    1
     6     7     3    1
     7     8     7    1
     8     9     4    1
     9    10     9    1
    10    11     9    1
    11    12     7    1
    12    13    12    1
    13    14    12    1
    14    15    12    1
    15    16    15    1
    16    17    15    2
    17    18    17    1
    18    19    17    1
    19    20     3    1
    20    21    20    1
    21    22    20    1
    22    23    20    1
    23    24    23   ar
    24    25    24    1
    25    26    24   ar
    26    27    26    1
    27    28    26   ar
    28    29    28   ar
    29    30    29    1
    30    31    23   ar
    31    32    31    1
    32    33     2    1
    33    34    33    1
    34    35    33    1
    35    36    33    1
    36     7     9    1
    37    29    31   ar
@<TRIPOS>SUBSTRUCTURE
     1 RES2        1 GROUP             0 ****  ****    0  
