@<TRIPOS>MOLECULE
01
    13    13     1     0     0
SMALL
NO_CHARGES
****
Generated from the CSD

@<TRIPOS>ATOM
     1 O1      11.7973   4.5271  19.4306   O.2       1 RES1   0.0000
     2 O2      10.4976   6.1991  19.2574   O.2       1 RES1   0.0000
     3 N1      10.7213   5.0235  19.1412   N.pl3     1 RES1   0.0000
     4 C1       9.7241   4.1789  18.4807   C.ar      1 RES1   0.0000
     5 C2      10.0992   2.9049  18.0997   C.ar      1 RES1   0.0000
     6 H2      10.9458   2.5787  18.3049   H         1 RES1   0.0000
     7 C3       9.2003   2.1330  17.4140   C.ar      1 RES1   0.0000
     8 H3       9.4330   1.2702  17.1594   H         1 RES1   0.0000
     9 C4       7.9419   2.6294  17.0972   C.ar      1 RES1   0.0000
    10 C5       7.5713   3.8901  17.5402   C.ar      1 RES1   0.0000
    11 H4       6.7144   4.2086  17.3680   H         1 RES1   0.0000
    12 C6       8.4694   4.6763  18.2341   C.ar      1 RES1   0.0000
    13 H5       8.2293   5.5247  18.5301   H         1 RES1   0.0000
@<TRIPOS>BOND
     1     1     3    2
     2     2     3    2
     3     3     4    1
     4     4     5   ar
     5     5     6    1
     6     7     5   ar
     7     8     7    1
     8     9     7   ar
     9    10     9   ar
    10    11    10    1
    11    12     4   ar
    12    13    12    1
    13    10    12   ar
@<TRIPOS>SUBSTRUCTURE
     1 RES1        1 GROUP             0 ****  ****    0  
