@<TRIPOS>MOLECULE
02
    17    17     1     0     0
SMALL
NO_CHARGES
****
Generated from the CSD

@<TRIPOS>ATOM
     1 C16      0.9104   3.6978   6.7350   C.ar      1 RES2   0.0000
     2 C17     -0.2348   4.3588   7.1323   C.ar      1 RES2   0.0000
     3 C18     -1.3748   4.2258   6.3182   C.ar      1 RES2   0.0000
     4 H18     -2.1655   4.6582   6.5519   H         1 RES2   0.0000
     5 C19     -1.3206   3.4511   5.1720   C.ar      1 RES2   0.0000
     6 H19     -2.0773   3.3707   4.6383   H         1 RES2   0.0000
     7 C20     -0.1881   2.8121   4.8181   C.ar      1 RES2   0.0000
     8 H20     -0.1802   2.2832   4.0523   H         1 RES2   0.0000
     9 C21      0.9731   2.9317   5.5822   C.ar      1 RES2   0.0000
    10 C22     -0.2741   5.1737   8.3850   C.3       1 RES2   0.0000
    11 H21      0.5847   5.1441   8.8131   H         1 RES2   0.0000
    12 H22     -0.9395   4.8179   8.9787   H         1 RES2   0.0000
    13 H23     -0.4926   6.0833   8.1675   H         1 RES2   0.0000
    14 C23      2.2245   2.2516   5.1213   C.3       1 RES2   0.0000
    15 H24      2.9326   2.4276   5.7441   H         1 RES2   0.0000
    16 H25      2.4699   2.5854   4.2543   H         1 RES2   0.0000
    17 H26      2.0733   1.3047   5.0687   H         1 RES2   0.0000
@<TRIPOS>BOND
     1     2     1   ar
     2     3     2   ar
     3     4     3    1
     4     5     3   ar
     5     6     5    1
     6     7     5   ar
     7     8     7    1
     8     9     1   ar
     9    10     2    1
    10    11    10    1
    11    12    10    1
    12    13    10    1
    13    14     9    1
    14    15    14    1
    15    16    14    1
    16    17    14    1
    17     7     9   ar
@<TRIPOS>SUBSTRUCTURE
     1 RES2        1 GROUP             0 ****  ****    0  
