@<TRIPOS>MOLECULE
02
    19    19     1     0     0
SMALL
NO_CHARGES
****
Generated from the CSD

@<TRIPOS>ATOM
     1 O6       8.3757  -6.0852   6.8325   O.2       1 RES2   0.0000
     2 O7       8.3049  -6.1077   9.0610   O.3       1 RES2   0.0000
     3 N6       8.1409  -3.2430   6.9453   N.2       1 RES2   0.0000
     4 C11      7.5662  -4.1461   7.9683   C.3       1 RES2   0.0000
     5 H6       7.7099  -3.7723   8.8843   H         1 RES2   0.0000
     6 C12      8.1511  -5.5244   7.8708   C.2       1 RES2   0.0000
     7 C13      8.7015  -7.4995   9.0257   C.3       1 RES2   0.0000
     8 H7       7.9791  -8.0355   8.6360   H         1 RES2   0.0000
     9 H8       8.8856  -7.8103   9.9369   H         1 RES2   0.0000
    10 H9       9.5109  -7.5941   8.4793   H         1 RES2   0.0000
    11 C33      7.1474  -2.8354   5.9566   C.3       1 RES2   0.0000
    12 H44      7.1615  -1.8535   5.8239   H         1 RES2   0.0000
    13 H45      7.3113  -3.2791   5.0874   H         1 RES2   0.0000
    14 C34      5.8806  -3.2610   6.5231   C.3       1 RES2   0.0000
    15 H46      5.3403  -3.7092   5.8248   H         1 RES2   0.0000
    16 H47      5.3767  -2.4706   6.8402   H         1 RES2   0.0000
    17 C35      6.1032  -4.1889   7.6492   C.3       1 RES2   0.0000
    18 H48      5.8320  -5.1078   7.3961   H         1 RES2   0.0000
    19 H49      5.5710  -3.9096   8.4354   H         1 RES2   0.0000
@<TRIPOS>BOND
     1     1     6    2
     2     2     6    1
     3     4     3    1
     4     5     4    1
     5     6     4    1
     6     7     2    1
     7     8     7    1
     8     9     7    1
     9    10     7    1
    10    11     3    1
    11    12    11    1
    12    13    11    1
    13    14    11    1
    14    15    14    1
    15    16    14    1
    16    17     4    1
    17    18    17    1
    18    19    17    1
    19    14    17    1
@<TRIPOS>SUBSTRUCTURE
     1 RES2        1 GROUP             0 ****  ****    0  
