@<TRIPOS>MOLECULE
ACEZEP
    99   102     1     0     0
SMALL
NO_CHARGES
****
Generated from the CSD

@<TRIPOS>ATOM
     1 Br1      4.9084   6.8297  -3.9308   Br        1 RES1   0.0000
     2 O1      10.8101   1.5326   2.3574   O.2       1 RES1   0.0000
     3 O2       7.7605   0.0525   4.1312   O.2       1 RES1   0.0000
     4 O3       7.0482  -2.7413   2.6679   O.2       1 RES1   0.0000
     5 O4      10.3001  -4.2848   4.5668   O.2       1 RES1   0.0000
     6 O5      10.1281  -3.4509   7.9511   O.2       1 RES1   0.0000
     7 O6       8.3757  -6.0852   6.8325   O.2       1 RES1   0.0000
     8 O7       8.3049  -6.1077   9.0610   O.3       1 RES1   0.0000
     9 O8       8.5133   2.1688  -0.3725   O.2       1 RES1   0.0000
    10 N1       9.8610   3.9502  -0.1089   N.am      1 RES1   0.0000
    11 H1       9.9723   4.8082  -0.2722   H         1 RES1   0.0000
    12 N2       9.1244   2.9888   2.4759   N.am      1 RES1   0.0000
    13 N3       7.7018   0.6283   1.9496   N.am      1 RES1   0.0000
    14 H2       7.9406   1.2116   1.3325   H         1 RES1   0.0000
    15 N4       9.0617  -2.0032   1.9935   N.am      1 RES1   0.0000
    16 N5       9.7254  -2.1147   4.6910   N.am      1 RES1   0.0000
    17 H3       9.3490  -1.4413   4.2688   H         1 RES1   0.0000
    18 N6       8.1409  -3.2430   6.9453   N.am      1 RES1   0.0000
    19 C1      10.8809   3.2768   0.6906   C.3       1 RES1   0.0000
    20 C2      10.2677   2.5471   1.8961   C.2       1 RES1   0.0000
    21 C3       8.5578   2.2273   3.6212   C.3       1 RES1   0.0000
    22 H4       9.2661   2.0990   4.3156   H         1 RES1   0.0000
    23 C4       7.9973   0.8716   3.2190   C.2       1 RES1   0.0000
    24 C5       6.9774  -0.6036   1.5465   C.3       1 RES1   0.0000
    25 C6       7.7241  -1.8670   2.1139   C.2       1 RES1   0.0000
    26 C7       9.6688  -3.2520   2.5141   C.3       1 RES1   0.0000
    27 H5       9.1042  -4.0380   2.2571   H         1 RES1   0.0000
    28 C8       9.9035  -3.2588   4.0090   C.2       1 RES1   0.0000
    29 C9      10.1220  -1.9098   6.0999   C.3       1 RES1   0.0000
    30 C10      9.4704  -2.9412   7.0427   C.2       1 RES1   0.0000
    31 C11      7.5662  -4.1461   7.9683   C.3       1 RES1   0.0000
    32 H6       7.7099  -3.7723   8.8843   H         1 RES1   0.0000
    33 C12      8.1511  -5.5244   7.8708   C.2       1 RES1   0.0000
    34 C13      8.7015  -7.4995   9.0257   C.3       1 RES1   0.0000
    35 H7       7.9791  -8.0355   8.6360   H         1 RES1   0.0000
    36 H8       8.8856  -7.8103   9.9369   H         1 RES1   0.0000
    37 H9       9.5109  -7.5941   8.4793   H         1 RES1   0.0000
    38 C14      8.7764   3.3624  -0.6104   C.2       1 RES1   0.0000
    39 C15      7.8759   4.1957  -1.4414   C.ar      1 RES1   0.0000
    40 C16      6.5807   3.8263  -1.5665   C.ar      1 RES1   0.0000
    41 H10      6.2873   3.0291  -1.1415   H         1 RES1   0.0000
    42 C17      5.6600   4.5785  -2.3030   C.ar      1 RES1   0.0000
    43 H11      4.7575   4.2970  -2.3861   H         1 RES1   0.0000
    44 C18      6.1072   5.7609  -2.9181   C.ar      1 RES1   0.0000
    45 C19      7.4246   6.1190  -2.8312   C.ar      1 RES1   0.0000
    46 H12      7.7382   6.8937  -3.2859   H         1 RES1   0.0000
    47 C20      8.2968   5.3600  -2.0852   C.ar      1 RES1   0.0000
    48 H13      9.2033   5.6325  -2.0078   H         1 RES1   0.0000
    49 C21     11.8522   4.3173   1.2494   C.3       1 RES1   0.0000
    50 H14     12.2124   4.8578   0.5149   H         1 RES1   0.0000
    51 H15     12.5868   3.8646   1.7117   H         1 RES1   0.0000
    52 H16     11.3787   4.9006   1.8798   H         1 RES1   0.0000
    53 C22     11.6418   2.2544  -0.1767   C.3       1 RES1   0.0000
    54 H17     11.0043   1.6260  -0.5750   H         1 RES1   0.0000
    55 H18     12.2792   1.7611   0.3811   H         1 RES1   0.0000
    56 H19     12.1254   2.7228  -0.8883   H         1 RES1   0.0000
    57 C23      8.4566   4.3083   2.3345   C.3       1 RES1   0.0000
    58 H20      7.7322   4.2767   1.6611   H         1 RES1   0.0000
    59 H21      9.1022   5.0154   2.0833   H         1 RES1   0.0000
    60 C24      7.9001   4.5335   3.7463   C.3       1 RES1   0.0000
    61 H22      8.5963   4.8938   4.3509   H         1 RES1   0.0000
    62 H23      7.1312   5.1596   3.7310   H         1 RES1   0.0000
    63 C25      7.4651   3.1394   4.1742   C.3       1 RES1   0.0000
    64 H24      6.5828   2.9097   3.7893   H         1 RES1   0.0000
    65 H25      7.4145   3.0719   5.1609   H         1 RES1   0.0000
    66 C26      5.5669  -0.5901   2.0384   C.3       1 RES1   0.0000
    67 H26      5.5609  -0.4955   3.0137   H         1 RES1   0.0000
    68 H27      5.1258  -1.4301   1.7900   H         1 RES1   0.0000
    69 H28      5.0853   0.1622   1.6334   H         1 RES1   0.0000
    70 C27      7.0219  -0.6779  -0.0105   C.3       1 RES1   0.0000
    71 H29      6.6617  -1.5404  -0.3057   H         1 RES1   0.0000
    72 H30      7.9487  -0.5901  -0.3162   H         1 RES1   0.0000
    73 H31      6.4816   0.0473  -0.3888   H         1 RES1   0.0000
    74 C28     10.0047  -1.2927   1.1329   C.3       1 RES1   0.0000
    75 H32      9.9743  -0.3198   1.3115   H         1 RES1   0.0000
    76 H33      9.7922  -1.4481   0.1786   H         1 RES1   0.0000
    77 C29     11.3564  -1.8512   1.4748   C.3       1 RES1   0.0000
    78 H34     11.7430  -1.4076   2.2705   H         1 RES1   0.0000
    79 H35     11.9858  -1.7702   0.7145   H         1 RES1   0.0000
    80 C30     11.0084  -3.3038   1.7576   C.3       1 RES1   0.0000
    81 H36     11.7085  -3.7295   2.3125   H         1 RES1   0.0000
    82 H37     10.9153  -3.8128   0.9141   H         1 RES1   0.0000
    83 C31      9.6789  -0.5180   6.5450   C.3       1 RES1   0.0000
    84 H38     10.0957   0.1576   5.9700   H         1 RES1   0.0000
    85 H39      9.9500  -0.3693   7.4744   H         1 RES1   0.0000
    86 H40      8.7035  -0.4504   6.4753   H         1 RES1   0.0000
    87 C32     11.6397  -2.0111   6.1973   C.3       1 RES1   0.0000
    88 H41     11.9190  -2.9300   6.0044   H         1 RES1   0.0000
    89 H42     11.9271  -1.7656   7.1019   H         1 RES1   0.0000
    90 H43     12.0505  -1.4008   5.5488   H         1 RES1   0.0000
    91 C33      7.1474  -2.8354   5.9566   C.3       1 RES1   0.0000
    92 H44      7.1615  -1.8535   5.8239   H         1 RES1   0.0000
    93 H45      7.3113  -3.2791   5.0874   H         1 RES1   0.0000
    94 C34      5.8806  -3.2610   6.5231   C.3       1 RES1   0.0000
    95 H46      5.3403  -3.7092   5.8248   H         1 RES1   0.0000
    96 H47      5.3767  -2.4706   6.8402   H         1 RES1   0.0000
    97 C35      6.1032  -4.1889   7.6492   C.3       1 RES1   0.0000
    98 H48      5.8320  -5.1078   7.3961   H         1 RES1   0.0000
    99 H49      5.5710  -3.9096   8.4354   H         1 RES1   0.0000
@<TRIPOS>BOND
     1     1    44    1
     2     2    20    2
     3     3    23    2
     4     4    25    2
     5     5    28    2
     6     6    30    2
     7     7    33    2
     8     8    33    1
     9     9    38    2
    10    10    11    1
    11    12    20   am
    12    13    14    1
    13    15    25   am
    14    16    17    1
    15    18    30   am
    16    19    10    1
    17    20    19    1
    18    21    12    1
    19    22    21    1
    20    23    13   am
    21    24    13    1
    22    25    24    1
    23    26    15    1
    24    27    26    1
    25    28    16   am
    26    29    16    1
    27    30    29    1
    28    31    18    1
    29    32    31    1
    30    33    31    1
    31    34     8    1
    32    35    34    1
    33    36    34    1
    34    37    34    1
    35    38    10   am
    36    39    38    1
    37    40    39   ar
    38    41    40    1
    39    42    40   ar
    40    43    42    1
    41    44    42   ar
    42    45    44   ar
    43    46    45    1
    44    47    39   ar
    45    48    47    1
    46    49    19    1
    47    50    49    1
    48    51    49    1
    49    52    49    1
    50    53    19    1
    51    54    53    1
    52    55    53    1
    53    56    53    1
    54    57    12    1
    55    58    57    1
    56    59    57    1
    57    60    57    1
    58    61    60    1
    59    62    60    1
    60    63    21    1
    61    64    63    1
    62    65    63    1
    63    66    24    1
    64    67    66    1
    65    68    66    1
    66    69    66    1
    67    70    24    1
    68    71    70    1
    69    72    70    1
    70    73    70    1
    71    74    15    1
    72    75    74    1
    73    76    74    1
    74    77    74    1
    75    78    77    1
    76    79    77    1
    77    80    26    1
    78    81    80    1
    79    82    80    1
    80    83    29    1
    81    84    83    1
    82    85    83    1
    83    86    83    1
    84    87    29    1
    85    88    87    1
    86    89    87    1
    87    90    87    1
    88    91    18    1
    89    92    91    1
    90    93    91    1
    91    94    91    1
    92    95    94    1
    93    96    94    1
    94    97    31    1
    95    98    97    1
    96    99    97    1
    97    21    23    1
    98    26    28    1
    99    45    47   ar
   100    60    63    1
   101    77    80    1
   102    94    97    1
@<TRIPOS>SUBSTRUCTURE
     1 RES1        1 GROUP             0 ****  ****    0  
@<TRIPOS>CRYSIN
   20.2360   22.5210    9.5520   90.0000   90.0000   90.0000    19     1
