@<TRIPOS>MOLECULE
01
    38    39     1     0     0
SMALL
NO_CHARGES
****
Generated from the CSD

@<TRIPOS>ATOM
     1 Br1      4.9084   6.8297  -3.9308   Br        1 RES1   0.0000
     2 O1      10.8101   1.5326   2.3574   O.2       1 RES1   0.0000
     3 O8       8.5133   2.1688  -0.3725   O.2       1 RES1   0.0000
     4 N1       9.8610   3.9502  -0.1089   N.am      1 RES1   0.0000
     5 H1       9.9723   4.8082  -0.2722   H         1 RES1   0.0000
     6 N2       9.1244   2.9888   2.4759   N.am      1 RES1   0.0000
     7 C1      10.8809   3.2768   0.6906   C.3       1 RES1   0.0000
     8 C2      10.2677   2.5471   1.8961   C.2       1 RES1   0.0000
     9 C3       8.5578   2.2273   3.6212   C.3       1 RES1   0.0000
    10 H4       9.2661   2.0990   4.3156   H         1 RES1   0.0000
    11 C14      8.7764   3.3624  -0.6104   C.2       1 RES1   0.0000
    12 C15      7.8759   4.1957  -1.4414   C.ar      1 RES1   0.0000
    13 C16      6.5807   3.8263  -1.5665   C.ar      1 RES1   0.0000
    14 H10      6.2873   3.0291  -1.1415   H         1 RES1   0.0000
    15 C17      5.6600   4.5785  -2.3030   C.ar      1 RES1   0.0000
    16 H11      4.7575   4.2970  -2.3861   H         1 RES1   0.0000
    17 C18      6.1072   5.7609  -2.9181   C.ar      1 RES1   0.0000
    18 C19      7.4246   6.1190  -2.8312   C.ar      1 RES1   0.0000
    19 H12      7.7382   6.8937  -3.2859   H         1 RES1   0.0000
    20 C20      8.2968   5.3600  -2.0852   C.ar      1 RES1   0.0000
    21 H13      9.2033   5.6325  -2.0078   H         1 RES1   0.0000
    22 C21     11.8522   4.3173   1.2494   C.3       1 RES1   0.0000
    23 H14     12.2124   4.8578   0.5149   H         1 RES1   0.0000
    24 H15     12.5868   3.8646   1.7117   H         1 RES1   0.0000
    25 H16     11.3787   4.9006   1.8798   H         1 RES1   0.0000
    26 C22     11.6418   2.2544  -0.1767   C.3       1 RES1   0.0000
    27 H17     11.0043   1.6260  -0.5750   H         1 RES1   0.0000
    28 H18     12.2792   1.7611   0.3811   H         1 RES1   0.0000
    29 H19     12.1254   2.7228  -0.8883   H         1 RES1   0.0000
    30 C23      8.4566   4.3083   2.3345   C.3       1 RES1   0.0000
    31 H20      7.7322   4.2767   1.6611   H         1 RES1   0.0000
    32 H21      9.1022   5.0154   2.0833   H         1 RES1   0.0000
    33 C24      7.9001   4.5335   3.7463   C.3       1 RES1   0.0000
    34 H22      8.5963   4.8938   4.3509   H         1 RES1   0.0000
    35 H23      7.1312   5.1596   3.7310   H         1 RES1   0.0000
    36 C25      7.4651   3.1394   4.1742   C.3       1 RES1   0.0000
    37 H24      6.5828   2.9097   3.7893   H         1 RES1   0.0000
    38 H25      7.4145   3.0719   5.1609   H         1 RES1   0.0000
@<TRIPOS>BOND
     1     1    17    1
     2     2     8    2
     3     3    11    2
     4     4     5    1
     5     6     8   am
     6     7     4    1
     7     8     7    1
     8     9     6    1
     9    10     9    1
    10    11     4   am
    11    12    11    1
    12    13    12   ar
    13    14    13    1
    14    15    13   ar
    15    16    15    1
    16    17    15   ar
    17    18    17   ar
    18    19    18    1
    19    20    12   ar
    20    21    20    1
    21    22     7    1
    22    23    22    1
    23    24    22    1
    24    25    22    1
    25    26     7    1
    26    27    26    1
    27    28    26    1
    28    29    26    1
    29    30     6    1
    30    31    30    1
    31    32    30    1
    32    33    30    1
    33    34    33    1
    34    35    33    1
    35    36     9    1
    36    37    36    1
    37    38    36    1
    38    18    20   ar
    39    33    36    1
@<TRIPOS>SUBSTRUCTURE
     1 RES1        1 GROUP             0 ****  ****    0  
