@<TRIPOS>MOLECULE
02
    15    16     1     0     0
SMALL
NO_CHARGES
****
Generated from the CSD

@<TRIPOS>ATOM
     1 C2      -2.8417  -1.3598  12.2926   C.ar      1 RES2   0.0000
     2 C4      -2.9899  -1.5458  10.9628   C.ar      1 RES2   0.0000
     3 H3      -3.1006  -0.8285  10.3807   H         1 RES2   0.0000
     4 C7      -2.9699  -2.8829  10.4975   C.ar      1 RES2   0.0000
     5 H6      -3.0652  -3.0607   9.5884   H         1 RES2   0.0000
     6 C10     -2.8092  -3.9080  11.3775   C.ar      1 RES2   0.0000
     7 H8      -2.8110  -4.7788  11.0485   H         1 RES2   0.0000
     8 C12     -2.6446  -3.7155  12.7364   C.ar      1 RES2   0.0000
     9 H9      -2.5326  -4.4303  13.3205   H         1 RES2   0.0000
    10 C14     -2.6552  -2.3995  13.1881   C.ar      1 RES2   0.0000
    11 C17     -2.5087  -1.8764  14.5276   C.2       1 RES2   0.0000
    12 N4      -2.6237  -0.4687  14.4185   N.am      1 RES2   0.0000
    13 C20     -2.8725  -0.0910  13.1141   C.2       1 RES2   0.0000
    14 O4      -3.0454   1.0251  12.7364   O.2       1 RES2   0.0000
    15 O5      -2.3234  -2.4296  15.5906   O.2       1 RES2   0.0000
@<TRIPOS>BOND
     1     1     2   ar
     2     2     3    1
     3     4     2   ar
     4     5     4    1
     5     6     4   ar
     6     7     6    1
     7     8     6   ar
     8     9     8    1
     9    10     1   ar
    10    11    10    1
    11    12    11   am
    12    13     1    1
    13    14    13    2
    14    15    11    2
    15     8    10   ar
    16    12    13   am
@<TRIPOS>SUBSTRUCTURE
     1 RES2        1 GROUP             0 ****  ****    0  
