@<TRIPOS>MOLECULE
ACOQIS
    56    61     1     0     0
SMALL
NO_CHARGES
****
Generated from the CSD

@<TRIPOS>ATOM
     1 N1       0.3717   7.0491  11.2062   N.ar      1 RES1   0.0000
     2 C1       1.5514   4.0899  15.2713   C.3       1 RES1   0.0000
     3 H1       2.4868   4.3824  15.2888   H         1 RES1   0.0000
     4 C2      -2.8417  -1.3598  12.2926   C.ar      1 RES1   0.0000
     5 C3       0.7539   4.9315  16.2175   C.3       1 RES1   0.0000
     6 H2       0.0506   5.4343  15.7560   H         1 RES1   0.0000
     7 C4      -2.9899  -1.5458  10.9628   C.ar      1 RES1   0.0000
     8 H3      -3.1006  -0.8285  10.3807   H         1 RES1   0.0000
     9 C5       0.6340   7.3204  12.4795   C.ar      1 RES1   0.0000
    10 H4       0.6483   8.2286  12.6780   H         1 RES1   0.0000
    11 N2       0.8801   6.5301  13.5249   N.ar      1 RES1   0.0000
    12 C6       0.1747   3.9470  17.2512   C.3       1 RES1   0.0000
    13 H5      -0.7646   4.1338  17.4615   H         1 RES1   0.0000
    14 C7      -2.9699  -2.8829  10.4975   C.ar      1 RES1   0.0000
    15 H6      -3.0652  -3.0607   9.5884   H         1 RES1   0.0000
    16 C8       0.8741   5.2393  13.1122   C.ar      1 RES1   0.0000
    17 C9       0.3672   2.5799  16.5971   C.3       1 RES1   0.0000
    18 H7       0.6210   1.9422  17.2980   H         1 RES1   0.0000
    19 C10     -2.8092  -3.9080  11.3775   C.ar      1 RES1   0.0000
    20 H8      -2.8110  -4.7788  11.0485   H         1 RES1   0.0000
    21 C11      0.6157   4.7942  11.8253   C.ar      1 RES1   0.0000
    22 C12     -2.6446  -3.7155  12.7364   C.ar      1 RES1   0.0000
    23 H9      -2.5326  -4.4303  13.3205   H         1 RES1   0.0000
    24 C13     -0.8916   2.0957  15.9702   C.2       1 RES1   0.0000
    25 H10     -1.3794   2.7106  15.4699   H         1 RES1   0.0000
    26 C14     -2.6552  -2.3995  13.1881   C.ar      1 RES1   0.0000
    27 C15      0.3660   5.7446  10.8246   C.ar      1 RES1   0.0000
    28 C16     -1.3742   0.8805  16.0559   C.2       1 RES1   0.0000
    29 H11     -0.8407   0.2445  16.4744   H         1 RES1   0.0000
    30 N3       0.6586   3.4076  11.7844   N.2       1 RES1   0.0000
    31 C17     -2.5087  -1.8764  14.5276   C.2       1 RES1   0.0000
    32 C18     -2.6854   0.4256  15.5497   C.3       1 RES1   0.0000
    33 H12     -3.1560  -0.0203  16.2720   H         1 RES1   0.0000
    34 H13     -3.2062   1.2046  15.2985   H         1 RES1   0.0000
    35 O1       1.4724   2.7301  15.7191   O.3       1 RES1   0.0000
    36 N4      -2.6237  -0.4687  14.4185   N.am      1 RES1   0.0000
    37 C19      0.9471   3.0851  13.0207   C.2       1 RES1   0.0000
    38 H14      1.0640   2.2013  13.2855   H         1 RES1   0.0000
    39 N5       1.0650   4.1200  13.8968   N.pl3     1 RES1   0.0000
    40 C20     -2.8725  -0.0910  13.1141   C.2       1 RES1   0.0000
    41 O2       1.5946   5.7795  16.9923   O.3       1 RES1   0.0000
    42 O3       1.0201   4.1094  18.3746   O.3       1 RES1   0.0000
    43 N6       0.1128   5.4652   9.5708   N.pl3     1 RES1   0.0000
    44 H15     -0.0445   6.0996   9.0121   H         1 RES1   0.0000
    45 H16      0.1034   4.6472   9.3061   H         1 RES1   0.0000
    46 O4      -3.0454   1.0251  12.7364   O.2       1 RES1   0.0000
    47 O5      -2.3234  -2.4296  15.5906   O.2       1 RES1   0.0000
    48 C21      1.4841   5.4855  18.3473   C.3       1 RES1   0.0000
    49 C22      0.4516   6.3603  19.0151   C.3       1 RES1   0.0000
    50 H17      0.3970   6.1353  19.9477   H         1 RES1   0.0000
    51 H18     -0.4037   6.2190  18.6024   H         1 RES1   0.0000
    52 H19      0.7035   7.2815  18.9217   H         1 RES1   0.0000
    53 C23      2.8085   5.5269  19.0015   C.3       1 RES1   0.0000
    54 H20      2.7110   5.3222  19.9340   H         1 RES1   0.0000
    55 H21      3.1861   6.4042  18.9041   H         1 RES1   0.0000
    56 H22      3.3883   4.8811  18.5907   H         1 RES1   0.0000
@<TRIPOS>BOND
     1     1     9   ar
     2     2     3    1
     3     4     7   ar
     4     5     2    1
     5     6     5    1
     6     7     8    1
     7     9    10    1
     8    11     9   ar
     9    12     5    1
    10    13    12    1
    11    14     7   ar
    12    15    14    1
    13    16    11   ar
    14    17    12    1
    15    18    17    1
    16    19    14   ar
    17    20    19    1
    18    21    16   ar
    19    22    19   ar
    20    23    22    1
    21    24    17    1
    22    25    24    1
    23    26     4   ar
    24    27     1   ar
    25    28    24    2
    26    29    28    1
    27    30    21    1
    28    31    26    1
    29    32    28    1
    30    33    32    1
    31    34    32    1
    32    35     2    1
    33    36    31   am
    34    37    30    2
    35    38    37    1
    36    39     2    1
    37    40     4    1
    38    41     5    1
    39    42    12    1
    40    43    27    1
    41    44    43    1
    42    45    43    1
    43    46    40    2
    44    47    31    2
    45    48    41    1
    46    49    48    1
    47    50    49    1
    48    51    49    1
    49    52    49    1
    50    53    48    1
    51    54    53    1
    52    55    53    1
    53    56    53    1
    54    16    39    1
    55    17    35    1
    56    21    27   ar
    57    22    26   ar
    58    32    36    1
    59    36    40   am
    60    37    39    1
    61    42    48    1
@<TRIPOS>SUBSTRUCTURE
     1 RES1        1 GROUP             0 ****  ****    0  
@<TRIPOS>CRYSIN
    6.9330    8.1230   19.4790   90.0000   91.8600   90.0000     4     1
