@<TRIPOS>MOLECULE
01
    34    37     1     0     0
SMALL
NO_CHARGES
****
Generated from the CSD

@<TRIPOS>ATOM
     1 N1       0.3717   7.0491  11.2062   N.ar      1 RES1   0.0000
     2 C1       1.5514   4.0899  15.2713   C.3       1 RES1   0.0000
     3 H1       2.4868   4.3824  15.2888   H         1 RES1   0.0000
     4 C3       0.7539   4.9315  16.2175   C.3       1 RES1   0.0000
     5 H2       0.0506   5.4343  15.7560   H         1 RES1   0.0000
     6 C5       0.6340   7.3204  12.4795   C.ar      1 RES1   0.0000
     7 H4       0.6483   8.2286  12.6780   H         1 RES1   0.0000
     8 N2       0.8801   6.5301  13.5249   N.ar      1 RES1   0.0000
     9 C6       0.1747   3.9470  17.2512   C.3       1 RES1   0.0000
    10 H5      -0.7646   4.1338  17.4615   H         1 RES1   0.0000
    11 C8       0.8741   5.2393  13.1122   C.ar      1 RES1   0.0000
    12 C9       0.3672   2.5799  16.5971   C.3       1 RES1   0.0000
    13 H7       0.6210   1.9422  17.2980   H         1 RES1   0.0000
    14 C11      0.6157   4.7942  11.8253   C.ar      1 RES1   0.0000
    15 C15      0.3660   5.7446  10.8246   C.ar      1 RES1   0.0000
    16 N3       0.6586   3.4076  11.7844   N.2       1 RES1   0.0000
    17 O1       1.4724   2.7301  15.7191   O.3       1 RES1   0.0000
    18 C19      0.9471   3.0851  13.0207   C.2       1 RES1   0.0000
    19 H14      1.0640   2.2013  13.2855   H         1 RES1   0.0000
    20 N5       1.0650   4.1200  13.8968   N.pl3     1 RES1   0.0000
    21 O2       1.5946   5.7795  16.9923   O.3       1 RES1   0.0000
    22 O3       1.0201   4.1094  18.3746   O.3       1 RES1   0.0000
    23 N6       0.1128   5.4652   9.5708   N.pl3     1 RES1   0.0000
    24 H15     -0.0445   6.0996   9.0121   H         1 RES1   0.0000
    25 H16      0.1034   4.6472   9.3061   H         1 RES1   0.0000
    26 C21      1.4841   5.4855  18.3473   C.3       1 RES1   0.0000
    27 C22      0.4516   6.3603  19.0151   C.3       1 RES1   0.0000
    28 H17      0.3970   6.1353  19.9477   H         1 RES1   0.0000
    29 H18     -0.4037   6.2190  18.6024   H         1 RES1   0.0000
    30 H19      0.7035   7.2815  18.9217   H         1 RES1   0.0000
    31 C23      2.8085   5.5269  19.0015   C.3       1 RES1   0.0000
    32 H20      2.7110   5.3222  19.9340   H         1 RES1   0.0000
    33 H21      3.1861   6.4042  18.9041   H         1 RES1   0.0000
    34 H22      3.3883   4.8811  18.5907   H         1 RES1   0.0000
@<TRIPOS>BOND
     1     1     6   ar
     2     2     3    1
     3     4     2    1
     4     5     4    1
     5     6     7    1
     6     8     6   ar
     7     9     4    1
     8    10     9    1
     9    11     8   ar
    10    12     9    1
    11    13    12    1
    12    14    11   ar
    13    15     1   ar
    14    16    14    1
    15    17     2    1
    16    18    16    2
    17    19    18    1
    18    20     2    1
    19    21     4    1
    20    22     9    1
    21    23    15    1
    22    24    23    1
    23    25    23    1
    24    26    21    1
    25    27    26    1
    26    28    27    1
    27    29    27    1
    28    30    27    1
    29    31    26    1
    30    32    31    1
    31    33    31    1
    32    34    31    1
    33    11    20    1
    34    12    17    1
    35    14    15   ar
    36    18    20    1
    37    22    26    1
@<TRIPOS>SUBSTRUCTURE
     1 RES1        1 GROUP             0 ****  ****    0  
