@<TRIPOS>MOLECULE
01
    20    22     1     0     0
SMALL
NO_CHARGES
****
Generated from the CSD

@<TRIPOS>ATOM
     1 O2      -4.0681   6.9616   4.9684   O.2       1 RES1   0.0000
     2 O3      -0.4914   5.0585   7.0469   O.2       1 RES1   0.0000
     3 C3      -3.4007   6.0752   5.4659   C.2       1 RES1   0.0000
     4 N6      -2.1901   6.2838   6.1111   N.am      1 RES1   0.0000
     5 C8      -1.5858   5.1060   6.5380   C.2       1 RES1   0.0000
     6 C12     -3.6382   3.9398   4.0608   C.3       1 RES1   0.0000
     7 C13     -3.7070   4.6003   5.4831   C.3       1 RES1   0.0000
     8 C14     -2.5139   3.9521   6.2082   C.3       1 RES1   0.0000
     9 C15     -2.9671   1.9223   4.9160   C.2       1 RES1   0.0000
    10 C16     -1.9127   2.9971   5.1320   C.3       1 RES1   0.0000
    11 C17     -3.9869   2.4823   4.2912   C.2       1 RES1   0.0000
    12 C18     -2.1204   3.8335   3.8643   C.3       1 RES1   0.0000
    13 H4      -1.7142   4.7382   3.8500   H         1 RES1   0.0000
    14 H6      -4.5439   4.4704   5.9127   H         1 RES1   0.0000
    15 H9      -2.7360   3.5137   7.0203   H         1 RES1   0.0000
    16 H12     -1.0235   2.7032   5.3130   H         1 RES1   0.0000
    17 H13     -1.8572   3.3159   3.0237   H         1 RES1   0.0000
    18 H14     -2.9065   0.9789   5.2967   H         1 RES1   0.0000
    19 H15     -4.1613   4.4305   3.4028   H         1 RES1   0.0000
    20 H17     -4.8539   2.1039   4.1061   H         1 RES1   0.0000
@<TRIPOS>BOND
     1     1     3    2
     2     2     5    2
     3     3     4   am
     4     4     5   am
     5     5     8    1
     6     6     7    1
     7     7     3    1
     8     8     7    1
     9     9    10    1
    10    10     8    1
    11    11     6    1
    12    12     6    1
    13    13    12    1
    14    14     7    1
    15    15     8    1
    16    16    10    1
    17    17    12    1
    18    18     9    1
    19    19     6    1
    20    20    11    1
    21     9    11    2
    22    10    12    1
@<TRIPOS>SUBSTRUCTURE
     1 RES1        1 GROUP             0 ****  ****    0  
