@<TRIPOS>MOLECULE
02
    29    30     1     0     0
SMALL
NO_CHARGES
****
Generated from the CSD

@<TRIPOS>ATOM
     1 N3       1.9936   7.7893   1.9764   N.2       1 RES2   0.0000
     2 C14      1.2363   7.1047   1.0589   C.2       1 RES2   0.0000
     3 H16      1.2428   6.1771   0.9892   H         1 RES2   0.0000
     4 N4       0.5051   7.8703   0.2922   N.2       1 RES2   0.0000
     5 C15      0.7845   9.1574   0.7314   C.2       1 RES2   0.0000
     6 C16      1.7303   9.1156   1.7645   C.2       1 RES2   0.0000
     7 N5       2.2710  10.1331   2.4166   N.2       1 RES2   0.0000
     8 C17      1.8022  11.2873   1.9659   C.2       1 RES2   0.0000
     9 H17      2.1365  12.0504   2.3803   H         1 RES2   0.0000
    10 N6       0.9072  11.4973   0.9892   N.2       1 RES2   0.0000
    11 C18      0.3753  10.4432   0.3600   C.2       1 RES2   0.0000
    12 N7      -0.5318  10.8013  -0.6168   N.am      1 RES2   0.0000
    13 H18     -0.5843  11.6745  -0.8326   H         1 RES2   0.0000
    14 C19     -1.5913  10.0458  -1.0847   C.2       1 RES2   0.0000
    15 O4      -1.8664   8.9334  -0.7457   O.2       1 RES2   0.0000
    16 O5      -2.2756  10.7950  -1.9640   O.3       1 RES2   0.0000
    17 C20     -3.6133  10.3634  -2.4071   C.3       1 RES2   0.0000
    18 C21     -3.5260   9.0726  -3.1451   C.3       1 RES2   0.0000
    19 H19     -2.9316   9.1700  -3.8927   H         1 RES2   0.0000
    20 H20     -4.3980   8.8245  -3.4602   H         1 RES2   0.0000
    21 H21     -3.1919   8.3905  -2.5579   H         1 RES2   0.0000
    22 C22     -4.5062  10.3394  -1.2260   C.3       1 RES2   0.0000
    23 H22     -4.5084  11.2025  -0.8078   H         1 RES2   0.0000
    24 H23     -4.1914   9.6813  -0.6015   H         1 RES2   0.0000
    25 H24     -5.3975  10.1154  -1.5038   H         1 RES2   0.0000
    26 C23     -4.0194  11.4682  -3.3676   C.3       1 RES2   0.0000
    27 H25     -3.4290  11.4670  -4.1247   H         1 RES2   0.0000
    28 H26     -3.9657  12.3161  -2.9207   H         1 RES2   0.0000
    29 H27     -4.9204  11.3189  -3.6636   H         1 RES2   0.0000
@<TRIPOS>BOND
     1     2     1    1
     2     3     2    1
     3     4     2    2
     4     5     4    1
     5     6     1    1
     6     7     6    2
     7     8     7    1
     8     9     8    1
     9    10     8    2
    10    11     5    2
    11    12    11    1
    12    13    12    1
    13    14    12   am
    14    15    14    2
    15    16    14    1
    16    17    16    1
    17    18    17    1
    18    19    18    1
    19    20    18    1
    20    21    18    1
    21    22    17    1
    22    23    22    1
    23    24    22    1
    24    25    22    1
    25    26    17    1
    26    27    26    1
    27    28    26    1
    28    29    26    1
    29     5     6    1
    30    10    11    1
@<TRIPOS>SUBSTRUCTURE
     1 RES2        1 GROUP             0 ****  ****    0  
