@<TRIPOS>MOLECULE
02
    14    15     1     0     0
SMALL
NO_CHARGES
****
Generated from the CSD

@<TRIPOS>ATOM
     1 C1      -5.4548  10.2948   1.2395   C.2       1 RES2   0.0000
     2 N1      -3.1217  10.7572   0.6819   N.2       1 RES2   0.0000
     3 N2      -6.1740   9.2737   1.8511   N.2       1 RES2   0.0000
     4 N3      -3.9754   8.7833   1.8290   N.2       1 RES2   0.0000
     5 C2      -4.1034   9.9988   1.2154   C.2       1 RES2   0.0000
     6 N4      -7.1057  11.9867   0.7373   N.pl3     1 RES2   0.0000
     7 N5      -4.8871  12.3301   0.1645   N.2       1 RES2   0.0000
     8 C5      -5.8476  11.5377   0.7152   C.2       1 RES2   0.0000
     9 C6      -3.6205  11.8770   0.1695   C.2       1 RES2   0.0000
    10 C7      -5.2509   8.4073   2.1881   C.2       1 RES2   0.0000
    11 H2      -5.4132   7.5670   2.6520   H         1 RES2   0.0000
    12 H10     -2.9656  12.4767  -0.2665   H         1 RES2   0.0000
    13 H16     -7.2872  12.8439   0.4502   H         1 RES2   0.0000
    14 H18     -7.7597  11.4356   1.0114   H         1 RES2   0.0000
@<TRIPOS>BOND
     1     1     3    1
     2     2     5    2
     3     3    10    2
     4     4     5    1
     5     5     1    1
     6     6     8    1
     7     7     8    1
     8     8     1    2
     9     9     2    1
    10    10     4    1
    11    11    10    1
    12    12     9    1
    13    13     6    1
    14    14     6    1
    15     7     9    2
@<TRIPOS>SUBSTRUCTURE
     1 RES2        1 GROUP             0 ****  ****    0  
