@<TRIPOS>MOLECULE
ACUHOV
    62    66     1     0     0
SMALL
NO_CHARGES
****
Generated from the CSD

@<TRIPOS>ATOM
     1 C1       7.6044  10.6469   0.9768   C.3       1 RES1   0.0000
     2 H1       7.8987  10.6570   0.0420   H         1 RES1   0.0000
     3 C2       6.2580  10.0243   1.2479   C.2       1 RES1   0.0000
     4 H2       5.8162   9.4206   0.6951   H         1 RES1   0.0000
     5 C3       5.8234  10.4735   2.3803   C.2       1 RES1   0.0000
     6 H3       5.0162  10.2495   2.7832   H         1 RES1   0.0000
     7 C4       6.8472  11.4201   2.9293   C.3       1 RES1   0.0000
     8 H4       6.5291  12.0630   3.5967   H         1 RES1   0.0000
     9 C5       8.0859  10.5495   3.3389   C.3       1 RES1   0.0000
    10 H5       8.7736  11.0987   3.7705   H         1 RES1   0.0000
    11 C6       8.5831  10.0027   2.0013   C.3       1 RES1   0.0000
    12 H6       9.5081  10.2761   1.8284   H         1 RES1   0.0000
    13 C7       7.3749  12.0073   1.6270   C.3       1 RES1   0.0000
    14 H7       8.1950  12.5123   1.7454   H         1 RES1   0.0000
    15 H8       6.7148  12.5427   1.1591   H         1 RES1   0.0000
    16 C8       8.4726   8.5132   2.1407   C.2       1 RES1   0.0000
    17 O1       8.7870   7.6742   1.3281   O.2       1 RES1   0.0000
    18 C9       7.7705   9.3573   4.1591   C.2       1 RES1   0.0000
    19 O2       7.4588   9.3156   5.3230   O.2       1 RES1   0.0000
    20 N1       7.9174   8.2272   3.3647   N.am      1 RES1   0.0000
    21 C10      7.6404   6.8756   3.8125   C.3       1 RES1   0.0000
    22 H9       7.4183   6.9022   4.7568   H         1 RES1   0.0000
    23 H10      8.4467   6.3454   3.7161   H         1 RES1   0.0000
    24 C11      6.5101   6.1834   3.0659   C.3       1 RES1   0.0000
    25 H11      6.6664   6.2682   2.1120   H         1 RES1   0.0000
    26 H12      6.5211   5.2393   3.2845   H         1 RES1   0.0000
    27 N2       5.1952   6.7250   3.3771   N.am      1 RES1   0.0000
    28 H13      4.8867   6.5668   4.2078   H         1 RES1   0.0000
    29 C12      4.2804   6.9604   2.4290   C.2       1 RES1   0.0000
    30 O3       4.5035   6.9313   1.2307   O.2       1 RES1   0.0000
    31 C13      2.8833   7.2540   2.9818   C.3       1 RES1   0.0000
    32 H14      2.5040   6.4352   3.3380   H         1 RES1   0.0000
    33 H15      2.9572   7.8880   3.7113   H         1 RES1   0.0000
    34 N3       1.9936   7.7893   1.9764   N.pl3     1 RES1   0.0000
    35 C14      1.2363   7.1047   1.0589   C.2       1 RES1   0.0000
    36 H16      1.2428   6.1771   0.9892   H         1 RES1   0.0000
    37 N4       0.5051   7.8703   0.2922   N.2       1 RES1   0.0000
    38 C15      0.7845   9.1574   0.7314   C.2       1 RES1   0.0000
    39 C16      1.7303   9.1156   1.7645   C.2       1 RES1   0.0000
    40 N5       2.2710  10.1331   2.4166   N.2       1 RES1   0.0000
    41 C17      1.8022  11.2873   1.9659   C.2       1 RES1   0.0000
    42 H17      2.1365  12.0504   2.3803   H         1 RES1   0.0000
    43 N6       0.9072  11.4973   0.9892   N.2       1 RES1   0.0000
    44 C18      0.3753  10.4432   0.3600   C.2       1 RES1   0.0000
    45 N7      -0.5318  10.8013  -0.6168   N.am      1 RES1   0.0000
    46 H18     -0.5843  11.6745  -0.8326   H         1 RES1   0.0000
    47 C19     -1.5913  10.0458  -1.0847   C.2       1 RES1   0.0000
    48 O4      -1.8664   8.9334  -0.7457   O.2       1 RES1   0.0000
    49 O5      -2.2756  10.7950  -1.9640   O.3       1 RES1   0.0000
    50 C20     -3.6133  10.3634  -2.4071   C.3       1 RES1   0.0000
    51 C21     -3.5260   9.0726  -3.1451   C.3       1 RES1   0.0000
    52 H19     -2.9316   9.1700  -3.8927   H         1 RES1   0.0000
    53 H20     -4.3980   8.8245  -3.4602   H         1 RES1   0.0000
    54 H21     -3.1919   8.3905  -2.5579   H         1 RES1   0.0000
    55 C22     -4.5062  10.3394  -1.2260   C.3       1 RES1   0.0000
    56 H22     -4.5084  11.2025  -0.8078   H         1 RES1   0.0000
    57 H23     -4.1914   9.6813  -0.6015   H         1 RES1   0.0000
    58 H24     -5.3975  10.1154  -1.5038   H         1 RES1   0.0000
    59 C23     -4.0194  11.4682  -3.3676   C.3       1 RES1   0.0000
    60 H25     -3.4290  11.4670  -4.1247   H         1 RES1   0.0000
    61 H26     -3.9657  12.3161  -2.9207   H         1 RES1   0.0000
    62 H27     -4.9204  11.3189  -3.6636   H         1 RES1   0.0000
@<TRIPOS>BOND
     1     1     2    1
     2     3     1    1
     3     4     3    1
     4     5     3    2
     5     6     5    1
     6     7     5    1
     7     8     7    1
     8     9     7    1
     9    10     9    1
    10    11     1    1
    11    12    11    1
    12    13     1    1
    13    14    13    1
    14    15    13    1
    15    16    11    1
    16    17    16    2
    17    18     9    1
    18    19    18    2
    19    20    16   am
    20    21    20    1
    21    22    21    1
    22    23    21    1
    23    24    21    1
    24    25    24    1
    25    26    24    1
    26    27    24    1
    27    28    27    1
    28    29    27   am
    29    30    29    2
    30    31    29    1
    31    32    31    1
    32    33    31    1
    33    34    31    1
    34    35    34    1
    35    36    35    1
    36    37    35    2
    37    38    37    1
    38    39    34    1
    39    40    39    2
    40    41    40    1
    41    42    41    1
    42    43    41    2
    43    44    38    2
    44    45    44    1
    45    46    45    1
    46    47    45   am
    47    48    47    2
    48    49    47    1
    49    50    49    1
    50    51    50    1
    51    52    51    1
    52    53    51    1
    53    54    51    1
    54    55    50    1
    55    56    55    1
    56    57    55    1
    57    58    55    1
    58    59    50    1
    59    60    59    1
    60    61    59    1
    61    62    59    1
    62     7    13    1
    63     9    11    1
    64    18    20   am
    65    38    39    1
    66    43    44    1
@<TRIPOS>SUBSTRUCTURE
     1 RES1        1 GROUP             0 ****  ****    0  
@<TRIPOS>CRYSIN
   37.9620   12.6553    9.5517   90.0000   91.5890   90.0000    15     1
