@<TRIPOS>MOLECULE
01
    20    22     1     0     0
SMALL
NO_CHARGES
****
Generated from the CSD

@<TRIPOS>ATOM
     1 C1       7.6044  10.6469   0.9768   C.3       1 RES1   0.0000
     2 H1       7.8987  10.6570   0.0420   H         1 RES1   0.0000
     3 C2       6.2580  10.0243   1.2479   C.2       1 RES1   0.0000
     4 H2       5.8162   9.4206   0.6951   H         1 RES1   0.0000
     5 C3       5.8234  10.4735   2.3803   C.2       1 RES1   0.0000
     6 H3       5.0162  10.2495   2.7832   H         1 RES1   0.0000
     7 C4       6.8472  11.4201   2.9293   C.3       1 RES1   0.0000
     8 H4       6.5291  12.0630   3.5967   H         1 RES1   0.0000
     9 C5       8.0859  10.5495   3.3389   C.3       1 RES1   0.0000
    10 H5       8.7736  11.0987   3.7705   H         1 RES1   0.0000
    11 C6       8.5831  10.0027   2.0013   C.3       1 RES1   0.0000
    12 H6       9.5081  10.2761   1.8284   H         1 RES1   0.0000
    13 C7       7.3749  12.0073   1.6270   C.3       1 RES1   0.0000
    14 H7       8.1950  12.5123   1.7454   H         1 RES1   0.0000
    15 H8       6.7148  12.5427   1.1591   H         1 RES1   0.0000
    16 C8       8.4726   8.5132   2.1407   C.2       1 RES1   0.0000
    17 O1       8.7870   7.6742   1.3281   O.2       1 RES1   0.0000
    18 C9       7.7705   9.3573   4.1591   C.2       1 RES1   0.0000
    19 O2       7.4588   9.3156   5.3230   O.2       1 RES1   0.0000
    20 N1       7.9174   8.2272   3.3647   N.am      1 RES1   0.0000
@<TRIPOS>BOND
     1     1     2    1
     2     3     1    1
     3     4     3    1
     4     5     3    2
     5     6     5    1
     6     7     5    1
     7     8     7    1
     8     9     7    1
     9    10     9    1
    10    11     1    1
    11    12    11    1
    12    13     1    1
    13    14    13    1
    14    15    13    1
    15    16    11    1
    16    17    16    2
    17    18     9    1
    18    19    18    2
    19    20    16   am
    20     7    13    1
    21     9    11    1
    22    18    20   am
@<TRIPOS>SUBSTRUCTURE
     1 RES1        1 GROUP             0 ****  ****    0  
