@<TRIPOS>MOLECULE
ACUHUB
    46    50     1     0     0
SMALL
NO_CHARGES
****
Generated from the CSD

@<TRIPOS>ATOM
     1 O1      -1.2389   7.5572   3.7909   O.3       1 RES1   0.0000
     2 O2      -4.0681   6.9616   4.9684   O.2       1 RES1   0.0000
     3 C1      -5.4548  10.2948   1.2395   C.2       1 RES1   0.0000
     4 N1      -3.1217  10.7572   0.6819   N.2       1 RES1   0.0000
     5 O3      -0.4914   5.0585   7.0469   O.2       1 RES1   0.0000
     6 O4      -2.2398   9.5800   3.8904   O.2       1 RES1   0.0000
     7 N2      -6.1740   9.2737   1.8511   N.2       1 RES1   0.0000
     8 N3      -3.9754   8.7833   1.8290   N.pl3     1 RES1   0.0000
     9 C2      -4.1034   9.9988   1.2154   C.2       1 RES1   0.0000
    10 N4      -7.1057  11.9867   0.7373   N.pl3     1 RES1   0.0000
    11 N5      -4.8871  12.3301   0.1645   N.2       1 RES1   0.0000
    12 C3      -3.4007   6.0752   5.4659   C.2       1 RES1   0.0000
    13 C4      -2.0679   8.5236   3.3554   C.2       1 RES1   0.0000
    14 C5      -5.8476  11.5377   0.7152   C.2       1 RES1   0.0000
    15 C6      -3.6205  11.8770   0.1695   C.2       1 RES1   0.0000
    16 C7      -5.2509   8.4073   2.1881   C.2       1 RES1   0.0000
    17 N6      -2.1901   6.2838   6.1111   N.am      1 RES1   0.0000
    18 C8      -1.5858   5.1060   6.5380   C.2       1 RES1   0.0000
    19 C9      -1.5385   7.5910   6.2019   C.3       1 RES1   0.0000
    20 C10     -2.7439   8.0597   2.0796   C.3       1 RES1   0.0000
    21 C11     -0.5795   7.8182   5.0618   C.3       1 RES1   0.0000
    22 C12     -3.6382   3.9398   4.0608   C.3       1 RES1   0.0000
    23 C13     -3.7070   4.6003   5.4831   C.3       1 RES1   0.0000
    24 C14     -2.5139   3.9521   6.2082   C.3       1 RES1   0.0000
    25 C15     -2.9671   1.9223   4.9160   C.2       1 RES1   0.0000
    26 C16     -1.9127   2.9971   5.1320   C.3       1 RES1   0.0000
    27 C17     -3.9869   2.4823   4.2912   C.2       1 RES1   0.0000
    28 C18     -2.1204   3.8335   3.8643   C.3       1 RES1   0.0000
    29 H1      -1.0587   7.5876   7.0825   H         1 RES1   0.0000
    30 H2      -5.4132   7.5670   2.6520   H         1 RES1   0.0000
    31 H3      -2.9399   7.0687   2.1427   H         1 RES1   0.0000
    32 H4      -1.7142   4.7382   3.8500   H         1 RES1   0.0000
    33 H5      -2.2727   8.2453   6.1674   H         1 RES1   0.0000
    34 H6      -4.5439   4.4704   5.9127   H         1 RES1   0.0000
    35 H7      -0.2721   8.7474   5.0982   H         1 RES1   0.0000
    36 H8      -2.1066   8.2153   1.3549   H         1 RES1   0.0000
    37 H9      -2.7360   3.5137   7.0203   H         1 RES1   0.0000
    38 H10     -2.9656  12.4767  -0.2665   H         1 RES1   0.0000
    39 H11      0.1804   7.1642   5.0953   H         1 RES1   0.0000
    40 H12     -1.0235   2.7032   5.3130   H         1 RES1   0.0000
    41 H13     -1.8572   3.3159   3.0237   H         1 RES1   0.0000
    42 H14     -2.9065   0.9789   5.2967   H         1 RES1   0.0000
    43 H15     -4.1613   4.4305   3.4028   H         1 RES1   0.0000
    44 H16     -7.2872  12.8439   0.4502   H         1 RES1   0.0000
    45 H17     -4.8539   2.1039   4.1061   H         1 RES1   0.0000
    46 H18     -7.7597  11.4356   1.0114   H         1 RES1   0.0000
@<TRIPOS>BOND
     1     1    13    1
     2     2    12    2
     3     3     7    1
     4     4     9    2
     5     5    18    2
     6     6    13    2
     7     7    16    2
     8     8     9    1
     9     9     3    1
    10    10    14    1
    11    11    14    1
    12    12    17   am
    13    13    20    1
    14    14     3    2
    15    15     4    1
    16    16     8    1
    17    17    18   am
    18    18    24    1
    19    19    17    1
    20    20     8    1
    21    21     1    1
    22    22    23    1
    23    23    12    1
    24    24    23    1
    25    25    26    1
    26    26    24    1
    27    27    22    1
    28    28    22    1
    29    29    19    1
    30    30    16    1
    31    31    20    1
    32    32    28    1
    33    33    19    1
    34    34    23    1
    35    35    21    1
    36    36    20    1
    37    37    24    1
    38    38    15    1
    39    39    21    1
    40    40    26    1
    41    41    28    1
    42    42    25    1
    43    43    22    1
    44    44    10    1
    45    45    27    1
    46    46    10    1
    47    11    15    2
    48    19    21    1
    49    25    27    2
    50    26    28    1
@<TRIPOS>SUBSTRUCTURE
     1 RES1        1 GROUP             0 ****  ****    0  
@<TRIPOS>CRYSIN
    6.7111    9.2637   15.5593  103.4380   98.4370  102.2740     2     1
