@<TRIPOS>MOLECULE
AFIFIF
    57    60     1     0     0
SMALL
NO_CHARGES
****
Generated from the CSD

@<TRIPOS>ATOM
     1 S1      -0.9962   2.5324   9.7463   S.o2      1 RES1   0.0000
     2 O1      -1.0482   2.6382  11.1205   O.2       1 RES1   0.0000
     3 O2      -1.4440   1.3703   9.1178   O.2       1 RES1   0.0000
     4 O3      -5.2526   8.6064   6.6235   O.3       1 RES1   0.0000
     5 O4      -2.2811  11.0726   7.7907   O.3       1 RES1   0.0000
     6 O5       0.9328  11.3333   9.1804   O.2       1 RES1   0.0000
     7 N1      -4.9413   7.2389   6.8399   N.2       1 RES1   0.0000
     8 N2      -3.4566   8.6037   7.8569   N.2       1 RES1   0.0000
     9 N3      -0.5381   9.6259   8.9736   N.am      1 RES1   0.0000
    10 H1      -1.3221   9.3953   8.7055   H         1 RES1   0.0000
    11 C1       0.6857   2.7637   9.2248   C.3       1 RES1   0.0000
    12 H2       1.2192   2.0267   9.5290   H         1 RES1   0.0000
    13 H3       1.0282   3.5812   9.5963   H         1 RES1   0.0000
    14 H4       0.7217   2.8101   8.2668   H         1 RES1   0.0000
    15 C2      -1.8386   3.9252   9.0914   C.ar      1 RES1   0.0000
    16 C3      -2.8594   3.7668   8.1538   C.ar      1 RES1   0.0000
    17 H5      -3.0914   2.9166   7.8569   H         1 RES1   0.0000
    18 C4      -3.5227   4.8682   7.6669   C.ar      1 RES1   0.0000
    19 H6      -4.2118   4.7618   7.0527   H         1 RES1   0.0000
    20 C5      -3.1683   6.1075   8.0852   C.ar      1 RES1   0.0000
    21 C6      -2.1609   6.2822   9.0181   C.ar      1 RES1   0.0000
    22 H7      -1.9262   7.1393   9.2933   H         1 RES1   0.0000
    23 C7      -1.5056   5.1958   9.5374   C.ar      1 RES1   0.0000
    24 H8      -0.8434   5.3104  10.1805   H         1 RES1   0.0000
    25 C8      -3.8536   7.3099   7.5720   C.2       1 RES1   0.0000
    26 C9      -4.3534   9.3502   7.2883   C.2       1 RES1   0.0000
    27 C10     -4.5106  10.7614   7.2005   C.ar      1 RES1   0.0000
    28 C11     -5.7410  11.3265   6.8207   C.ar      1 RES1   0.0000
    29 H9      -6.4472  10.7710   6.5826   H         1 RES1   0.0000
    30 C12     -5.9182  12.7077   6.7954   C.ar      1 RES1   0.0000
    31 H10     -6.7313  13.0680   6.5189   H         1 RES1   0.0000
    32 C13     -4.9314  13.5074   7.1644   C.ar      1 RES1   0.0000
    33 H11     -5.0779  14.4246   7.2029   H         1 RES1   0.0000
    34 C14     -3.6933  13.0052   7.4914   C.ar      1 RES1   0.0000
    35 H12     -3.0043  13.5907   7.7066   H         1 RES1   0.0000
    36 C15     -3.4622  11.6595   7.5046   C.ar      1 RES1   0.0000
    37 C16     -1.1842  11.8274   8.2764   C.3       1 RES1   0.0000
    38 H13     -1.4905  12.4552   8.9508   H         1 RES1   0.0000
    39 H14     -0.7850  12.3337   7.5503   H         1 RES1   0.0000
    40 C17     -0.1751  10.9088   8.8630   C.2       1 RES1   0.0000
    41 C18      0.3388   8.6078   9.5278   C.ar      1 RES1   0.0000
    42 C19      0.3537   8.4072  10.8909   C.ar      1 RES1   0.0000
    43 C20      1.2052   7.4191  11.3489   C.ar      1 RES1   0.0000
    44 H15      1.2514   7.2798  12.2673   H         1 RES1   0.0000
    45 C21      1.9722   6.6466  10.5615   C.ar      1 RES1   0.0000
    46 H16      2.5275   5.9942  10.9234   H         1 RES1   0.0000
    47 C22      1.9068   6.8554   9.2044   C.ar      1 RES1   0.0000
    48 H17      2.4038   6.3054   8.6418   H         1 RES1   0.0000
    49 C23      1.1196   7.8612   8.6382   C.ar      1 RES1   0.0000
    50 C24      1.1072   8.1001   7.1548   C.3       1 RES1   0.0000
    51 H18      1.6808   7.4627   6.7233   H         1 RES1   0.0000
    52 H19      1.4187   8.9886   6.9709   H         1 RES1   0.0000
    53 H20      0.2122   8.0005   6.8231   H         1 RES1   0.0000
    54 C25     -0.5338   9.2192  11.8273   C.3       1 RES1   0.0000
    55 H21     -1.0467   9.8484  11.3153   H         1 RES1   0.0000
    56 H22      0.0156   9.6928  12.4572   H         1 RES1   0.0000
    57 H23     -1.1276   8.6296  12.2986   H         1 RES1   0.0000
@<TRIPOS>BOND
     1     1     2    2
     2     3     1    2
     3     4     7    1
     4     5    36    1
     5     6    40    2
     6     7    25    2
     7     8    25    1
     8     9    10    1
     9    11     1    1
    10    12    11    1
    11    13    11    1
    12    14    11    1
    13    15     1    1
    14    16    15   ar
    15    17    16    1
    16    18    16   ar
    17    19    18    1
    18    20    18   ar
    19    21    20   ar
    20    22    21    1
    21    23    15   ar
    22    24    23    1
    23    25    20    1
    24    26     4    1
    25    27    26    1
    26    28    27   ar
    27    29    28    1
    28    30    28   ar
    29    31    30    1
    30    32    30   ar
    31    33    32    1
    32    34    32   ar
    33    35    34    1
    34    36    27   ar
    35    37     5    1
    36    38    37    1
    37    39    37    1
    38    40     9   am
    39    41     9    1
    40    42    41   ar
    41    43    42   ar
    42    44    43    1
    43    45    43   ar
    44    46    45    1
    45    47    45   ar
    46    48    47    1
    47    49    41   ar
    48    50    49    1
    49    51    50    1
    50    52    50    1
    51    53    50    1
    52    54    42    1
    53    55    54    1
    54    56    54    1
    55    57    54    1
    56     8    26    2
    57    21    23   ar
    58    34    36   ar
    59    37    40    1
    60    47    49   ar
@<TRIPOS>SUBSTRUCTURE
     1 RES1        1 GROUP             0 ****  ****    0  
@<TRIPOS>CRYSIN
   28.8480   13.6480   13.5620   90.0000  117.5800   90.0000    15     1
