@<TRIPOS>MOLECULE
02
    19    19     1     0     0
SMALL
NO_CHARGES
****
Generated from the CSD

@<TRIPOS>ATOM
     1 N3      -0.5381   9.6259   8.9736   N.2       1 RES2   0.0000
     2 H1      -1.3221   9.3953   8.7055   H         1 RES2   0.0000
     3 C18      0.3388   8.6078   9.5278   C.ar      1 RES2   0.0000
     4 C19      0.3537   8.4072  10.8909   C.ar      1 RES2   0.0000
     5 C20      1.2052   7.4191  11.3489   C.ar      1 RES2   0.0000
     6 H15      1.2514   7.2798  12.2673   H         1 RES2   0.0000
     7 C21      1.9722   6.6466  10.5615   C.ar      1 RES2   0.0000
     8 H16      2.5275   5.9942  10.9234   H         1 RES2   0.0000
     9 C22      1.9068   6.8554   9.2044   C.ar      1 RES2   0.0000
    10 H17      2.4038   6.3054   8.6418   H         1 RES2   0.0000
    11 C23      1.1196   7.8612   8.6382   C.ar      1 RES2   0.0000
    12 C24      1.1072   8.1001   7.1548   C.3       1 RES2   0.0000
    13 H18      1.6808   7.4627   6.7233   H         1 RES2   0.0000
    14 H19      1.4187   8.9886   6.9709   H         1 RES2   0.0000
    15 H20      0.2122   8.0005   6.8231   H         1 RES2   0.0000
    16 C25     -0.5338   9.2192  11.8273   C.3       1 RES2   0.0000
    17 H21     -1.0467   9.8484  11.3153   H         1 RES2   0.0000
    18 H22      0.0156   9.6928  12.4572   H         1 RES2   0.0000
    19 H23     -1.1276   8.6296  12.2986   H         1 RES2   0.0000
@<TRIPOS>BOND
     1     1     2    1
     2     3     1    1
     3     4     3   ar
     4     5     4   ar
     5     6     5    1
     6     7     5   ar
     7     8     7    1
     8     9     7   ar
     9    10     9    1
    10    11     3   ar
    11    12    11    1
    12    13    12    1
    13    14    12    1
    14    15    12    1
    15    16     4    1
    16    17    16    1
    17    18    16    1
    18    19    16    1
    19     9    11   ar
@<TRIPOS>SUBSTRUCTURE
     1 RES2        1 GROUP             0 ****  ****    0  
