@<TRIPOS>MOLECULE
01
    17    17     1     0     0
SMALL
NO_CHARGES
****
Generated from the CSD

@<TRIPOS>ATOM
     1 S1      -0.9962   2.5324   9.7463   S.o2      1 RES1   0.0000
     2 O1      -1.0482   2.6382  11.1205   O.2       1 RES1   0.0000
     3 O2      -1.4440   1.3703   9.1178   O.2       1 RES1   0.0000
     4 C1       0.6857   2.7637   9.2248   C.3       1 RES1   0.0000
     5 H2       1.2192   2.0267   9.5290   H         1 RES1   0.0000
     6 H3       1.0282   3.5812   9.5963   H         1 RES1   0.0000
     7 H4       0.7217   2.8101   8.2668   H         1 RES1   0.0000
     8 C2      -1.8386   3.9252   9.0914   C.ar      1 RES1   0.0000
     9 C3      -2.8594   3.7668   8.1538   C.ar      1 RES1   0.0000
    10 H5      -3.0914   2.9166   7.8569   H         1 RES1   0.0000
    11 C4      -3.5227   4.8682   7.6669   C.ar      1 RES1   0.0000
    12 H6      -4.2118   4.7618   7.0527   H         1 RES1   0.0000
    13 C5      -3.1683   6.1075   8.0852   C.ar      1 RES1   0.0000
    14 C6      -2.1609   6.2822   9.0181   C.ar      1 RES1   0.0000
    15 H7      -1.9262   7.1393   9.2933   H         1 RES1   0.0000
    16 C7      -1.5056   5.1958   9.5374   C.ar      1 RES1   0.0000
    17 H8      -0.8434   5.3104  10.1805   H         1 RES1   0.0000
@<TRIPOS>BOND
     1     1     2    2
     2     3     1    2
     3     4     1    1
     4     5     4    1
     5     6     4    1
     6     7     4    1
     7     8     1    1
     8     9     8   ar
     9    10     9    1
    10    11     9   ar
    11    12    11    1
    12    13    11   ar
    13    14    13   ar
    14    15    14    1
    15    16     8   ar
    16    17    16    1
    17    14    16   ar
@<TRIPOS>SUBSTRUCTURE
     1 RES1        1 GROUP             0 ****  ****    0  
