@<TRIPOS>MOLECULE
02
    14    14     1     0     0
SMALL
NO_CHARGES
****
Generated from the CSD

@<TRIPOS>ATOM
     1 C25      2.4495   1.1621  -7.6175   C.3       1 RES2   0.0000
     2 H19      1.5066   1.1173  -7.3573   H         1 RES2   0.0000
     3 C26      3.0405   2.5162  -7.3337   C.3       1 RES2   0.0000
     4 H20      2.3471   3.1932  -7.2821   H         1 RES2   0.0000
     5 H21      3.5366   2.5090  -6.4995   H         1 RES2   0.0000
     6 C27      3.9370   2.7674  -8.4818   C.3       1 RES2   0.0000
     7 H22      3.7081   3.6090  -8.9032   H         1 RES2   0.0000
     8 H23      4.8570   2.8165  -8.1786   H         1 RES2   0.0000
     9 C28      3.7924   1.7309  -9.3848   C.3       1 RES2   0.0000
    10 H24      4.5735   1.1549  -9.3526   H         1 RES2   0.0000
    11 H25      3.7186   2.0889 -10.2835   H         1 RES2   0.0000
    12 C29      2.6234   0.9759  -9.0688   C.3       1 RES2   0.0000
    13 H26      2.7484   0.0390  -9.2859   H         1 RES2   0.0000
    14 H27      1.8538   1.3108  -9.5568   H         1 RES2   0.0000
@<TRIPOS>BOND
     1     2     1    1
     2     3     1    1
     3     4     3    1
     4     5     3    1
     5     6     3    1
     6     7     6    1
     7     8     6    1
     8     9     6    1
     9    10     9    1
    10    11     9    1
    11    12     1    1
    12    13    12    1
    13    14    12    1
    14     9    12    1
@<TRIPOS>SUBSTRUCTURE
     1 RES2        1 GROUP             0 ****  ****    0  
