@<TRIPOS>MOLECULE
AHIHAC
    74    78     1     0     0
SMALL
NO_CHARGES
****
Generated from the CSD

@<TRIPOS>ATOM
     1 S1       1.4687   1.0644   7.4410   S.o2      1 RES1   0.0000
     2 O1       2.6992   0.4848   7.8430   O.2       1 RES1   0.0000
     3 O2       0.3081   0.7416   8.1627   O.2       1 RES1   0.0000
     4 O3       3.0862   1.2916   5.0960   O.2       1 RES1   0.0000
     5 O4       2.8589   0.4790   0.1163   O.3       1 RES1   0.0000
     6 O5       1.6300  -0.1728  -5.4225   O.2       1 RES1   0.0000
     7 O6       3.2543   0.1628  -6.9112   O.3       1 RES1   0.0000
     8 N1       1.1230   0.5868   5.8975   N.am      1 RES1   0.0000
     9 H1       0.3549   0.2411   5.7255   H         1 RES1   0.0000
    10 N2       3.2486  -4.3893  -0.7770   N.pl3     1 RES1   0.0000
    11 N3       3.6003  -1.2964  -5.3320   N.am      1 RES1   0.0000
    12 H2       4.3498  -1.3714  -5.7470   H         1 RES1   0.0000
    13 C1      -0.8280   3.1808   6.8865   C.3       1 RES1   0.0000
    14 H3      -1.4209   3.9338   6.8349   H         1 RES1   0.0000
    15 H4      -1.1043   2.6043   7.6024   H         1 RES1   0.0000
    16 H5      -0.8519   2.6966   6.0566   H         1 RES1   0.0000
    17 C2       0.5799   3.6649   7.1449   C.ar      1 RES1   0.0000
    18 C3       0.8505   5.0236   7.1598   C.ar      1 RES1   0.0000
    19 H6       0.1490   5.6228   7.0456   H         1 RES1   0.0000
    20 C4       2.1041   5.5068   7.3369   C.ar      1 RES1   0.0000
    21 H7       2.2518   6.4255   7.3229   H         1 RES1   0.0000
    22 C5       3.1591   4.6469   7.5367   C.ar      1 RES1   0.0000
    23 H8       4.0194   4.9819   7.6519   H         1 RES1   0.0000
    24 C6       2.9366   3.2980   7.5642   C.ar      1 RES1   0.0000
    25 H9       3.6430   2.7111   7.7121   H         1 RES1   0.0000
    26 C7       1.6670   2.8131   7.3733   C.ar      1 RES1   0.0000
    27 C8       2.0265   0.7306   4.8997   C.2       1 RES1   0.0000
    28 C9       1.6741   0.1509   3.5628   C.ar      1 RES1   0.0000
    29 C10      2.4232   0.6073   2.4949   C.ar      1 RES1   0.0000
    30 H10      3.0722   1.2617   2.6209   H         1 RES1   0.0000
    31 C11      2.1945   0.0751   1.2206   C.ar      1 RES1   0.0000
    32 C12      1.2398  -0.9320   1.0176   C.ar      1 RES1   0.0000
    33 C13      0.5167  -1.3449   2.0920   C.ar      1 RES1   0.0000
    34 H11     -0.1317  -2.0008   1.9716   H         1 RES1   0.0000
    35 C14      0.7162  -0.8152   3.3725   C.ar      1 RES1   0.0000
    36 H12      0.2040  -1.1145   4.0893   H         1 RES1   0.0000
    37 C15      0.9904  -1.4998  -0.3442   C.3       1 RES1   0.0000
    38 H13      0.1015  -1.8882  -0.3612   H         1 RES1   0.0000
    39 H14      1.0071  -0.7767  -0.9912   H         1 RES1   0.0000
    40 C16      1.9722  -2.5361  -0.7635   C.2       1 RES1   0.0000
    41 C17      2.3836  -3.6377  -0.0501   C.2       1 RES1   0.0000
    42 H15      2.1057  -3.8400   0.8149   H         1 RES1   0.0000
    43 C18      3.4030  -3.7854  -1.9993   C.ar      1 RES1   0.0000
    44 C19      2.6292  -2.6203  -2.0159   C.ar      1 RES1   0.0000
    45 C20      2.6406  -1.7725  -3.1315   C.ar      1 RES1   0.0000
    46 H16      2.1220  -1.0004  -3.1541   H         1 RES1   0.0000
    47 C21      3.4394  -2.1185  -4.1852   C.ar      1 RES1   0.0000
    48 C22      4.1807  -3.2944  -4.1579   C.ar      1 RES1   0.0000
    49 H17      4.6855  -3.5181  -4.9063   H         1 RES1   0.0000
    50 C23      4.2009  -4.1420  -3.0745   C.ar      1 RES1   0.0000
    51 H18      4.7215  -4.9126  -3.0638   H         1 RES1   0.0000
    52 C24      2.7269  -0.4137  -5.8525   C.2       1 RES1   0.0000
    53 C25      2.4495   1.1621  -7.6175   C.3       1 RES1   0.0000
    54 H19      1.5066   1.1173  -7.3573   H         1 RES1   0.0000
    55 C26      3.0405   2.5162  -7.3337   C.3       1 RES1   0.0000
    56 H20      2.3471   3.1932  -7.2821   H         1 RES1   0.0000
    57 H21      3.5366   2.5090  -6.4995   H         1 RES1   0.0000
    58 C27      3.9370   2.7674  -8.4818   C.3       1 RES1   0.0000
    59 H22      3.7081   3.6090  -8.9032   H         1 RES1   0.0000
    60 H23      4.8570   2.8165  -8.1786   H         1 RES1   0.0000
    61 C28      3.7924   1.7309  -9.3848   C.3       1 RES1   0.0000
    62 H24      4.5735   1.1549  -9.3526   H         1 RES1   0.0000
    63 H25      3.7186   2.0889 -10.2835   H         1 RES1   0.0000
    64 C29      2.6234   0.9759  -9.0688   C.3       1 RES1   0.0000
    65 H26      2.7484   0.0390  -9.2859   H         1 RES1   0.0000
    66 H27      1.8538   1.3108  -9.5568   H         1 RES1   0.0000
    67 C30      3.8326   1.5086   0.2731   C.3       1 RES1   0.0000
    68 H28      4.2043   1.7294  -0.5827   H         1 RES1   0.0000
    69 H29      4.5314   1.2025   0.8557   H         1 RES1   0.0000
    70 H30      3.4174   2.2867   0.6536   H         1 RES1   0.0000
    71 C31      3.9181  -5.5662  -0.3126   C.3       1 RES1   0.0000
    72 H31      3.8082  -6.2710  -0.9546   H         1 RES1   0.0000
    73 H32      3.5419  -5.8379   0.5289   H         1 RES1   0.0000
    74 H33      4.8527  -5.3789  -0.2000   H         1 RES1   0.0000
@<TRIPOS>BOND
     1     1     2    2
     2     3     1    2
     3     4    27    2
     4     5    31    1
     5     6    52    2
     6     7    52    1
     7     8     1    1
     8     9     8    1
     9    10    41    1
    10    11    12    1
    11    13    14    1
    12    15    13    1
    13    16    13    1
    14    17    13    1
    15    18    17   ar
    16    19    18    1
    17    20    18   ar
    18    21    20    1
    19    22    20   ar
    20    23    22    1
    21    24    22   ar
    22    25    24    1
    23    26     1    1
    24    27     8   am
    25    28    27    1
    26    29    28   ar
    27    30    29    1
    28    31    29   ar
    29    32    31   ar
    30    33    32   ar
    31    34    33    1
    32    35    28   ar
    33    36    35    1
    34    37    32    1
    35    38    37    1
    36    39    37    1
    37    40    37    1
    38    41    40    2
    39    42    41    1
    40    43    10    1
    41    44    40    1
    42    45    44   ar
    43    46    45    1
    44    47    11    1
    45    48    47   ar
    46    49    48    1
    47    50    43   ar
    48    51    50    1
    49    52    11   am
    50    53     7    1
    51    54    53    1
    52    55    53    1
    53    56    55    1
    54    57    55    1
    55    58    55    1
    56    59    58    1
    57    60    58    1
    58    61    58    1
    59    62    61    1
    60    63    61    1
    61    64    53    1
    62    65    64    1
    63    66    64    1
    64    67     5    1
    65    68    67    1
    66    69    67    1
    67    70    67    1
    68    71    10    1
    69    72    71    1
    70    73    71    1
    71    74    71    1
    72    17    26   ar
    73    24    26   ar
    74    33    35   ar
    75    43    44   ar
    76    45    47   ar
    77    48    50   ar
    78    61    64    1
@<TRIPOS>SUBSTRUCTURE
     1 RES1        1 GROUP             0 ****  ****    0  
@<TRIPOS>CRYSIN
    9.5780   14.4360   22.0270   90.0000  102.5570   90.0000    14     1
