@<TRIPOS>MOLECULE
01
    17    17     1     0     0
SMALL
NO_CHARGES
****
Generated from the CSD

@<TRIPOS>ATOM
     1 S1       1.4687   1.0644   7.4410   S.o       1 RES1   0.0000
     2 O1       2.6992   0.4848   7.8430   O.2       1 RES1   0.0000
     3 O2       0.3081   0.7416   8.1627   O.2       1 RES1   0.0000
     4 C1      -0.8280   3.1808   6.8865   C.3       1 RES1   0.0000
     5 H3      -1.4209   3.9338   6.8349   H         1 RES1   0.0000
     6 H4      -1.1043   2.6043   7.6024   H         1 RES1   0.0000
     7 H5      -0.8519   2.6966   6.0566   H         1 RES1   0.0000
     8 C2       0.5799   3.6649   7.1449   C.ar      1 RES1   0.0000
     9 C3       0.8505   5.0236   7.1598   C.ar      1 RES1   0.0000
    10 H6       0.1490   5.6228   7.0456   H         1 RES1   0.0000
    11 C4       2.1041   5.5068   7.3369   C.ar      1 RES1   0.0000
    12 H7       2.2518   6.4255   7.3229   H         1 RES1   0.0000
    13 C5       3.1591   4.6469   7.5367   C.ar      1 RES1   0.0000
    14 H8       4.0194   4.9819   7.6519   H         1 RES1   0.0000
    15 C6       2.9366   3.2980   7.5642   C.ar      1 RES1   0.0000
    16 H9       3.6430   2.7111   7.7121   H         1 RES1   0.0000
    17 C7       1.6670   2.8131   7.3733   C.ar      1 RES1   0.0000
@<TRIPOS>BOND
     1     1     2    2
     2     3     1    2
     3     4     5    1
     4     6     4    1
     5     7     4    1
     6     8     4    1
     7     9     8   ar
     8    10     9    1
     9    11     9   ar
    10    12    11    1
    11    13    11   ar
    12    14    13    1
    13    15    13   ar
    14    16    15    1
    15    17     1    1
    16     8    17   ar
    17    15    17   ar
@<TRIPOS>SUBSTRUCTURE
     1 RES1        1 GROUP             0 ****  ****    0  
