@<TRIPOS>MOLECULE
AKETAO
   102   104     1     0     0
SMALL
NO_CHARGES
****
Generated from the CSD

@<TRIPOS>ATOM
     1 O1       0.4636   5.0392   9.6597   O.3       1 RES1   0.0000
     2 O2       6.7611   4.2267   2.9480   O.3       1 RES1   0.0000
     3 O3       1.5846   7.2798   7.0801   O.3       1 RES1   0.0000
     4 H1       0.7650   7.3069   7.0556   H         1 RES1   0.0000
     5 O4       4.2089   5.4273   2.7983   O.3       1 RES1   0.0000
     6 O5       1.5188   4.9647   4.6976   O.2       1 RES1   0.0000
     7 O6      -2.0058   4.9046   7.6575   O.3       1 RES1   0.0000
     8 O7       9.4424   4.2454   1.9860   O.3       1 RES1   0.0000
     9 H2       9.4564   4.5333   2.7538   H         1 RES1   0.0000
    10 O8      -1.1984   6.9652   7.4411   O.2       1 RES1   0.0000
    11 C1       1.3130   6.1911   9.8607   C.3       1 RES1   0.0000
    12 H3       0.8172   6.9856   9.5727   H         1 RES1   0.0000
    13 C2       2.0045   5.9737   7.4724   C.3       1 RES1   0.0000
    14 H4       1.2298   5.3760   7.4283   H         1 RES1   0.0000
    15 C3      -1.6101   6.0772   8.1385   C.2       1 RES1   0.0000
    16 C4       7.6406   3.0924   3.0728   C.3       1 RES1   0.0000
    17 H5       8.1516   3.2371   3.8968   H         1 RES1   0.0000
    18 C5       6.0166   6.8058   2.1524   C.3       1 RES1   0.0000
    19 H6       6.8124   6.5472   2.6433   H         1 RES1   0.0000
    20 H7       6.2816   7.3172   1.3719   H         1 RES1   0.0000
    21 C6       2.9000   6.8617   4.2293   C.3       1 RES1   0.0000
    22 H8       3.0023   7.6302   4.8289   H         1 RES1   0.0000
    23 C7       5.2056   5.5794   1.7486   C.3       1 RES1   0.0000
    24 C8       4.3015   6.4985   3.7267   C.3       1 RES1   0.0000
    25 H9       4.8297   6.1911   4.4933   H         1 RES1   0.0000
    26 C9      -0.8116   5.1095  10.3088   C.3       1 RES1   0.0000
    27 H10     -1.2379   4.2358  10.1865   H         1 RES1   0.0000
    28 C10      5.0834   7.6058   3.0264   C.3       1 RES1   0.0000
    29 H11      4.4709   8.1142   2.4550   H         1 RES1   0.0000
    30 C11      3.0316   5.5018   6.4480   C.3       1 RES1   0.0000
    31 H12      3.8389   6.0527   6.5185   H         1 RES1   0.0000
    32 C12      1.6162   6.3391  11.3644   C.3       1 RES1   0.0000
    33 H13      2.1094   7.1769  11.4866   H         1 RES1   0.0000
    34 C13      6.0293   4.2930   1.7113   C.3       1 RES1   0.0000
    35 H14      5.4220   3.5257   1.6565   H         1 RES1   0.0000
    36 C14      8.6711   3.0510   1.9417   C.3       1 RES1   0.0000
    37 C15      2.3953   5.7077   5.0729   C.2       1 RES1   0.0000
    38 C16      4.4381   5.8092   0.4415   C.3       1 RES1   0.0000
    39 H15      3.9483   6.6428   0.5154   H         1 RES1   0.0000
    40 H16      5.0808   5.9112  -0.2776   H         1 RES1   0.0000
    41 C17      2.4986   6.0172   8.9319   C.3       1 RES1   0.0000
    42 H17      2.9269   5.1597   9.1369   H         1 RES1   0.0000
    43 C18      7.9475   3.0697   0.6188   C.3       1 RES1   0.0000
    44 H18      7.4481   2.2446   0.5120   H         1 RES1   0.0000
    45 H19      8.5935   3.1252  -0.1024   H         1 RES1   0.0000
    46 C19      7.0030   4.2423   0.5397   C.3       1 RES1   0.0000
    47 H20      6.5001   4.1892  -0.2881   H         1 RES1   0.0000
    48 H21      7.5189   5.0638   0.5211   H         1 RES1   0.0000
    49 C20     -0.6619   5.3155  11.8104   C.3       1 RES1   0.0000
    50 H22     -0.2403   4.5059  12.1677   H         1 RES1   0.0000
    51 C21      1.9290   7.2829   3.1286   C.3       1 RES1   0.0000
    52 H23      2.3716   7.9215   2.5486   H         1 RES1   0.0000
    53 H24      1.7061   6.5044   2.5941   H         1 RES1   0.0000
    54 C22      3.4047   4.0260   6.6317   C.3       1 RES1   0.0000
    55 H25      3.8447   3.9093   7.4762   H         1 RES1   0.0000
    56 H26      3.9943   3.7547   5.9233   H         1 RES1   0.0000
    57 H27      2.6091   3.4893   6.6076   H         1 RES1   0.0000
    58 C23      0.2866   6.4736  12.0995   C.3       1 RES1   0.0000
    59 H28     -0.1386   7.3051  11.8363   H         1 RES1   0.0000
    60 H29      0.4548   6.5155  13.0540   H         1 RES1   0.0000
    61 C24      5.7580   8.5632   4.0051   C.3       1 RES1   0.0000
    62 H30      6.3481   8.0703   4.5793   H         1 RES1   0.0000
    63 H31      5.0895   9.0038   4.5336   H         1 RES1   0.0000
    64 H32      6.2617   9.2179   3.5149   H         1 RES1   0.0000
    65 C25      3.4676   4.7183   0.0616   C.3       1 RES1   0.0000
    66 H33      3.0186   4.9590  -0.7522   H         1 RES1   0.0000
    67 H34      2.8212   4.6069   0.7626   H         1 RES1   0.0000
    68 H35      3.9450   3.8958  -0.0674   H         1 RES1   0.0000
    69 C26     -2.0052   5.4707  12.5266   C.3       1 RES1   0.0000
    70 H36     -2.4053   6.3070  12.2777   H         1 RES1   0.0000
    71 H37     -1.8654   5.4525  13.4760   H         1 RES1   0.0000
    72 H38     -2.5871   4.7499  12.2748   H         1 RES1   0.0000
    73 C27      2.4906   5.2006  11.9083   C.3       1 RES1   0.0000
    74 H39      2.1123   4.3565  11.6510   H         1 RES1   0.0000
    75 H40      2.5287   5.2563  12.8654   H         1 RES1   0.0000
    76 H41      3.3765   5.2778  11.5469   H         1 RES1   0.0000
    77 C28      6.8411   1.8153   3.2955   C.3       1 RES1   0.0000
    78 H42      6.1241   1.9901   3.9091   H         1 RES1   0.0000
    79 H43      7.4150   1.1372   3.6573   H         1 RES1   0.0000
    80 H44      6.4791   1.5153   2.4579   H         1 RES1   0.0000
    81 C29      3.5345   7.1308   9.1281   C.3       1 RES1   0.0000
    82 H45      3.1034   7.9851   9.0520   H         1 RES1   0.0000
    83 H46      4.2156   7.0554   8.4550   H         1 RES1   0.0000
    84 H47      3.9324   7.0484   9.9969   H         1 RES1   0.0000
    85 C30      0.6612   7.8946   3.6435   C.3       1 RES1   0.0000
    86 H48      0.1289   8.1972   2.9038   H         1 RES1   0.0000
    87 H49      0.8725   8.6388   4.2113   H         1 RES1   0.0000
    88 H50      0.1697   7.2391   4.1440   H         1 RES1   0.0000
    89 C31     -1.7978   4.7059   6.2374   C.3       1 RES1   0.0000
    90 H51     -2.1668   5.4483   5.7531   H         1 RES1   0.0000
    91 H52     -2.2316   3.8958   5.9609   H         1 RES1   0.0000
    92 H53     -0.8568   4.6428   6.0575   H         1 RES1   0.0000
    93 C32      9.6358   1.8546   1.9909   C.3       1 RES1   0.0000
    94 H54      9.1090   1.0397   1.9693   H         1 RES1   0.0000
    95 H55     10.1791   1.8693   1.1883   H         1 RES1   0.0000
    96 C33     -1.7248   6.1414   9.6336   C.3       1 RES1   0.0000
    97 H56     -2.6448   5.9751   9.8927   H         1 RES1   0.0000
    98 H57     -1.4844   7.0309   9.9367   H         1 RES1   0.0000
    99 C34     10.5456   1.7884   3.1691   C.3       1 RES1   0.0000
   100 H58     11.1646   1.0633   3.0539   H         1 RES1   0.0000
   101 H59     10.0290   1.6450   3.9648   H         1 RES1   0.0000
   102 H60     11.0299   2.6134   3.2451   H         1 RES1   0.0000
@<TRIPOS>BOND
     1     1    11    1
     2     2    16    1
     3     3     4    1
     4     5    23    1
     5     6    37    2
     6     7    15    1
     7     8     9    1
     8    10    15    2
     9    11    12    1
    10    13     3    1
    11    14    13    1
    12    15    96    1
    13    16    17    1
    14    18    19    1
    15    20    18    1
    16    21    22    1
    17    23    18    1
    18    24     5    1
    19    25    24    1
    20    26     1    1
    21    27    26    1
    22    28    18    1
    23    29    28    1
    24    30    13    1
    25    31    30    1
    26    32    11    1
    27    33    32    1
    28    34     2    1
    29    35    34    1
    30    36     8    1
    31    37    21    1
    32    38    23    1
    33    39    38    1
    34    40    38    1
    35    41    11    1
    36    42    41    1
    37    43    36    1
    38    44    43    1
    39    45    43    1
    40    46    34    1
    41    47    46    1
    42    48    46    1
    43    49    26    1
    44    50    49    1
    45    51    21    1
    46    52    51    1
    47    53    51    1
    48    54    30    1
    49    55    54    1
    50    56    54    1
    51    57    54    1
    52    58    32    1
    53    59    58    1
    54    60    58    1
    55    61    28    1
    56    62    61    1
    57    63    61    1
    58    64    61    1
    59    65    38    1
    60    66    65    1
    61    67    65    1
    62    68    65    1
    63    69    49    1
    64    70    69    1
    65    71    69    1
    66    72    69    1
    67    73    32    1
    68    74    73    1
    69    75    73    1
    70    76    73    1
    71    77    16    1
    72    78    77    1
    73    79    77    1
    74    80    77    1
    75    81    41    1
    76    82    81    1
    77    83    81    1
    78    84    81    1
    79    85    51    1
    80    86    85    1
    81    87    85    1
    82    88    85    1
    83    89     7    1
    84    90    89    1
    85    91    89    1
    86    92    89    1
    87    93    36    1
    88    94    93    1
    89    95    93    1
    90    96    26    1
    91    97    96    1
    92    98    96    1
    93    99    93    1
    94   100    99    1
    95   101    99    1
    96   102    99    1
    97    13    41    1
    98    16    36    1
    99    21    24    1
   100    23    34    1
   101    24    28    1
   102    30    37    1
   103    43    46    1
   104    49    58    1
@<TRIPOS>SUBSTRUCTURE
     1 RES1        1 GROUP             0 ****  ****    0  
@<TRIPOS>CRYSIN
    8.8767   10.3495   19.4472   90.0000   91.2990   90.0000     4     1
