@<TRIPOS>MOLECULE
02
    45    46     1     0     0
SMALL
NO_CHARGES
****
Generated from the CSD

@<TRIPOS>ATOM
     1 O2       6.7611   4.2267   2.9480   O.3       1 RES2   0.0000
     2 O4       4.2089   5.4273   2.7983   O.3       1 RES2   0.0000
     3 O7       9.4424   4.2454   1.9860   O.3       1 RES2   0.0000
     4 H2       9.4564   4.5333   2.7538   H         1 RES2   0.0000
     5 C4       7.6406   3.0924   3.0728   C.3       1 RES2   0.0000
     6 H5       8.1516   3.2371   3.8968   H         1 RES2   0.0000
     7 C5       6.0166   6.8058   2.1524   C.3       1 RES2   0.0000
     8 H6       6.8124   6.5472   2.6433   H         1 RES2   0.0000
     9 H7       6.2816   7.3172   1.3719   H         1 RES2   0.0000
    10 C7       5.2056   5.5794   1.7486   C.3       1 RES2   0.0000
    11 C8       4.3015   6.4985   3.7267   C.3       1 RES2   0.0000
    12 H9       4.8297   6.1911   4.4933   H         1 RES2   0.0000
    13 C10      5.0834   7.6058   3.0264   C.3       1 RES2   0.0000
    14 H11      4.4709   8.1142   2.4550   H         1 RES2   0.0000
    15 C13      6.0293   4.2930   1.7113   C.3       1 RES2   0.0000
    16 H14      5.4220   3.5257   1.6565   H         1 RES2   0.0000
    17 C14      8.6711   3.0510   1.9417   C.3       1 RES2   0.0000
    18 C16      4.4381   5.8092   0.4415   C.3       1 RES2   0.0000
    19 H15      3.9483   6.6428   0.5154   H         1 RES2   0.0000
    20 H16      5.0808   5.9112  -0.2776   H         1 RES2   0.0000
    21 C18      7.9475   3.0697   0.6188   C.3       1 RES2   0.0000
    22 H18      7.4481   2.2446   0.5120   H         1 RES2   0.0000
    23 H19      8.5935   3.1252  -0.1024   H         1 RES2   0.0000
    24 C19      7.0030   4.2423   0.5397   C.3       1 RES2   0.0000
    25 H20      6.5001   4.1892  -0.2881   H         1 RES2   0.0000
    26 H21      7.5189   5.0638   0.5211   H         1 RES2   0.0000
    27 C24      5.7580   8.5632   4.0051   C.3       1 RES2   0.0000
    28 H30      6.3481   8.0703   4.5793   H         1 RES2   0.0000
    29 H31      5.0895   9.0038   4.5336   H         1 RES2   0.0000
    30 H32      6.2617   9.2179   3.5149   H         1 RES2   0.0000
    31 C25      3.4676   4.7183   0.0616   C.3       1 RES2   0.0000
    32 H33      3.0186   4.9590  -0.7522   H         1 RES2   0.0000
    33 H34      2.8212   4.6069   0.7626   H         1 RES2   0.0000
    34 H35      3.9450   3.8958  -0.0674   H         1 RES2   0.0000
    35 C28      6.8411   1.8153   3.2955   C.3       1 RES2   0.0000
    36 H42      6.1241   1.9901   3.9091   H         1 RES2   0.0000
    37 H43      7.4150   1.1372   3.6573   H         1 RES2   0.0000
    38 H44      6.4791   1.5153   2.4579   H         1 RES2   0.0000
    39 C32      9.6358   1.8546   1.9909   C.3       1 RES2   0.0000
    40 H54      9.1090   1.0397   1.9693   H         1 RES2   0.0000
    41 H55     10.1791   1.8693   1.1883   H         1 RES2   0.0000
    42 C34     10.5456   1.7884   3.1691   C.3       1 RES2   0.0000
    43 H58     11.1646   1.0633   3.0539   H         1 RES2   0.0000
    44 H59     10.0290   1.6450   3.9648   H         1 RES2   0.0000
    45 H60     11.0299   2.6134   3.2451   H         1 RES2   0.0000
@<TRIPOS>BOND
     1     1     5    1
     2     2    10    1
     3     3     4    1
     4     5     6    1
     5     7     8    1
     6     9     7    1
     7    10     7    1
     8    11     2    1
     9    12    11    1
    10    13     7    1
    11    14    13    1
    12    15     1    1
    13    16    15    1
    14    17     3    1
    15    18    10    1
    16    19    18    1
    17    20    18    1
    18    21    17    1
    19    22    21    1
    20    23    21    1
    21    24    15    1
    22    25    24    1
    23    26    24    1
    24    27    13    1
    25    28    27    1
    26    29    27    1
    27    30    27    1
    28    31    18    1
    29    32    31    1
    30    33    31    1
    31    34    31    1
    32    35     5    1
    33    36    35    1
    34    37    35    1
    35    38    35    1
    36    39    17    1
    37    40    39    1
    38    41    39    1
    39    42    39    1
    40    43    42    1
    41    44    42    1
    42    45    42    1
    43     5    17    1
    44    10    15    1
    45    11    13    1
    46    21    24    1
@<TRIPOS>SUBSTRUCTURE
     1 RES2        1 GROUP             0 ****  ****    0  
