@<TRIPOS>MOLECULE
01
    30    30     1     0     0
SMALL
NO_CHARGES
****
Generated from the CSD

@<TRIPOS>ATOM
     1 O1       0.4636   5.0392   9.6597   O.3       1 RES1   0.0000
     2 O6      -2.0058   4.9046   7.6575   O.3       1 RES1   0.0000
     3 O8      -1.1984   6.9652   7.4411   O.2       1 RES1   0.0000
     4 C1       1.3130   6.1911   9.8607   C.3       1 RES1   0.0000
     5 H3       0.8172   6.9856   9.5727   H         1 RES1   0.0000
     6 C3      -1.6101   6.0772   8.1385   C.2       1 RES1   0.0000
     7 C9      -0.8116   5.1095  10.3088   C.3       1 RES1   0.0000
     8 H10     -1.2379   4.2358  10.1865   H         1 RES1   0.0000
     9 C12      1.6162   6.3391  11.3644   C.3       1 RES1   0.0000
    10 H13      2.1094   7.1769  11.4866   H         1 RES1   0.0000
    11 C20     -0.6619   5.3155  11.8104   C.3       1 RES1   0.0000
    12 H22     -0.2403   4.5059  12.1677   H         1 RES1   0.0000
    13 C23      0.2866   6.4736  12.0995   C.3       1 RES1   0.0000
    14 H28     -0.1386   7.3051  11.8363   H         1 RES1   0.0000
    15 H29      0.4548   6.5155  13.0540   H         1 RES1   0.0000
    16 C26     -2.0052   5.4707  12.5266   C.3       1 RES1   0.0000
    17 H36     -2.4053   6.3070  12.2777   H         1 RES1   0.0000
    18 H37     -1.8654   5.4525  13.4760   H         1 RES1   0.0000
    19 H38     -2.5871   4.7499  12.2748   H         1 RES1   0.0000
    20 C27      2.4906   5.2006  11.9083   C.3       1 RES1   0.0000
    21 H39      2.1123   4.3565  11.6510   H         1 RES1   0.0000
    22 H40      2.5287   5.2563  12.8654   H         1 RES1   0.0000
    23 H41      3.3765   5.2778  11.5469   H         1 RES1   0.0000
    24 C31     -1.7978   4.7059   6.2374   C.3       1 RES1   0.0000
    25 H51     -2.1668   5.4483   5.7531   H         1 RES1   0.0000
    26 H52     -2.2316   3.8958   5.9609   H         1 RES1   0.0000
    27 H53     -0.8568   4.6428   6.0575   H         1 RES1   0.0000
    28 C33     -1.7248   6.1414   9.6336   C.3       1 RES1   0.0000
    29 H56     -2.6448   5.9751   9.8927   H         1 RES1   0.0000
    30 H57     -1.4844   7.0309   9.9367   H         1 RES1   0.0000
@<TRIPOS>BOND
     1     1     4    1
     2     2     6    1
     3     3     6    2
     4     4     5    1
     5     6    28    1
     6     7     1    1
     7     8     7    1
     8     9     4    1
     9    10     9    1
    10    11     7    1
    11    12    11    1
    12    13     9    1
    13    14    13    1
    14    15    13    1
    15    16    11    1
    16    17    16    1
    17    18    16    1
    18    19    16    1
    19    20     9    1
    20    21    20    1
    21    22    20    1
    22    23    20    1
    23    24     2    1
    24    25    24    1
    25    26    24    1
    26    27    24    1
    27    28     7    1
    28    29    28    1
    29    30    28    1
    30    11    13    1
@<TRIPOS>SUBSTRUCTURE
     1 RES1        1 GROUP             0 ****  ****    0  
