@<TRIPOS>MOLECULE
AKOYEE
    89    92     1     0     0
SMALL
NO_CHARGES
****
Generated from the CSD

@<TRIPOS>ATOM
     1 S1       2.7793   2.7114  16.6442   S.o2      1 RES1   0.0000
     2 S2       8.2963   7.1222  15.6703   S.o2      1 RES1   0.0000
     3 S3       9.1416   6.7847  11.2776   S.3       1 RES1   0.0000
     4 O1       4.1531   7.4727  20.9778   O.2       1 RES1   0.0000
     5 O2       6.1600   6.5386  20.7674   O.2       1 RES1   0.0000
     6 O3       1.4459   2.4114  17.0442   O.2       1 RES1   0.0000
     7 O4       3.7558   1.7334  16.4999   O.2       1 RES1   0.0000
     8 O5       4.8723   1.7076  13.8287   O.3       1 RES1   0.0000
     9 O6       7.9742   8.4396  15.7486   O.2       1 RES1   0.0000
    10 O7       9.6354   6.5661  15.8495   O.2       1 RES1   0.0000
    11 N1       4.9943   6.7847  20.6944   N.pl3     1 RES1   0.0000
    12 N2       2.6584   3.7592  15.2860   N.pl3     1 RES1   0.0000
    13 N3       7.8287   6.5937  14.1174   N.pl3     1 RES1   0.0000
    14 C1       3.3970   3.8957  17.9519   C.ar      1 RES1   0.0000
    15 C2       4.7469   3.7856  18.2563   C.ar      1 RES1   0.0000
    16 C3       5.2374   4.7882  19.1884   C.ar      1 RES1   0.0000
    17 C4       4.4298   5.5547  19.6179   C.ar      1 RES1   0.0000
    18 C5       3.0668   5.8319  19.3553   C.ar      1 RES1   0.0000
    19 C6       2.5762   4.8263  18.4632   C.ar      1 RES1   0.0000
    20 C7       1.6527   4.7191  15.2321   C.3       1 RES1   0.0000
    21 C8       1.2356   5.1058  13.8078   C.3       1 RES1   0.0000
    22 C9       0.2025   6.0885  13.9191   C.3       1 RES1   0.0000
    23 C10      0.6956   3.6168  13.0514   C.3       1 RES1   0.0000
    24 C11      3.9770   3.9825  14.5782   C.3       1 RES1   0.0000
    25 C12      4.2544   3.0466  13.4114   C.3       1 RES1   0.0000
    26 C13      5.1201   3.5547  12.3488   C.3       1 RES1   0.0000
    27 C14      5.3434   2.5380  11.1471   C.3       1 RES1   0.0000
    28 C15      4.0825   2.2977  10.5020   C.ar      1 RES1   0.0000
    29 C16      3.3724   1.1386  10.6341   C.ar      1 RES1   0.0000
    30 C17      2.2128   0.7559  10.0150   C.ar      1 RES1   0.0000
    31 C18      1.6505   1.8359   9.2186   C.ar      1 RES1   0.0000
    32 C19      2.1999   2.9558   9.0655   C.ar      1 RES1   0.0000
    33 C20      3.5031   3.3859   9.6620   C.ar      1 RES1   0.0000
    34 C21      6.3553   3.9526  12.9505   C.2       1 RES1   0.0000
    35 C22      7.0898   4.7782  12.8323   C.2       1 RES1   0.0000
    36 C23      8.2961   5.2933  13.5592   C.3       1 RES1   0.0000
    37 C24      7.2454   6.1805  16.6477   C.3       1 RES1   0.0000
    38 C25      9.5360   5.5594  12.6914   C.3       1 RES1   0.0000
    39 C26     10.6974   7.5037  11.0219   C.ar      1 RES1   0.0000
    40 C27     10.5504   8.7507  10.3020   C.ar      1 RES1   0.0000
    41 C28     11.6636   9.5782   9.9837   C.ar      1 RES1   0.0000
    42 C29     12.9455   8.9717  10.2968   C.ar      1 RES1   0.0000
    43 C30     14.1086   9.7786   9.9750   C.ar      1 RES1   0.0000
    44 C31     15.3519   9.1867  10.2463   C.ar      1 RES1   0.0000
    45 C32     15.4201   7.9028  11.0011   C.ar      1 RES1   0.0000
    46 C33     14.3013   7.3449  11.2915   C.ar      1 RES1   0.0000
    47 C34     13.0134   7.7375  11.0306   C.ar      1 RES1   0.0000
    48 C35     11.8627   7.0918  11.2758   C.ar      1 RES1   0.0000
    49 H1       4.4856   1.6906  14.7626   H         1 RES1   0.0000
    50 H2       7.2031   7.0853  13.6009   H         1 RES1   0.0000
    51 H3       5.2227   3.0109  17.8893   H         1 RES1   0.0000
    52 H4       6.1620   4.7753  19.3866   H         1 RES1   0.0000
    53 H5       2.5313   6.4765  19.7605   H         1 RES1   0.0000
    54 H6       1.6515   4.8521  18.2111   H         1 RES1   0.0000
    55 H7       0.8317   4.3018  15.6425   H         1 RES1   0.0000
    56 H8       1.8512   5.4656  15.7434   H         1 RES1   0.0000
    57 H9       1.9887   5.5137  13.3157   H         1 RES1   0.0000
    58 H10      0.4695   6.7484  14.4965   H         1 RES1   0.0000
    59 H11     -0.1055   6.3440  13.1140   H         1 RES1   0.0000
    60 H12     -0.5328   5.5711  14.3887   H         1 RES1   0.0000
    61 H13     -0.0517   3.2898  13.5313   H         1 RES1   0.0000
    62 H14      0.4557   3.7668  12.1471   H         1 RES1   0.0000
    63 H15      1.4000   2.9728  13.0862   H         1 RES1   0.0000
    64 H16      4.0031   4.8908  14.2426   H         1 RES1   0.0000
    65 H17      4.6926   3.8969  15.2130   H         1 RES1   0.0000
    66 H18      3.3826   2.8380  13.0201   H         1 RES1   0.0000
    67 H19      4.7617   4.3505  11.9697   H         1 RES1   0.0000
    68 H20      6.0468   2.8175  10.5246   H         1 RES1   0.0000
    69 H21      5.7751   1.6578  11.5176   H         1 RES1   0.0000
    70 H22      3.6997   0.4553  11.2550   H         1 RES1   0.0000
    71 H23      1.7966  -0.0738  10.0342   H         1 RES1   0.0000
    72 H24      0.7771   1.7322   8.7873   H         1 RES1   0.0000
    73 H25      1.8405   3.6678   8.5334   H         1 RES1   0.0000
    74 H26      3.9604   4.1506   9.5716   H         1 RES1   0.0000
    75 H27      6.7701   3.1076  13.5000   H         1 RES1   0.0000
    76 H28      6.6274   5.3930  12.2271   H         1 RES1   0.0000
    77 H29      8.5274   4.6775  14.2722   H         1 RES1   0.0000
    78 H30      6.3437   6.4952  16.6251   H         1 RES1   0.0000
    79 H31      7.2649   5.2635  16.4303   H         1 RES1   0.0000
    80 H32      7.5224   6.2473  17.6007   H         1 RES1   0.0000
    81 H33      9.9026   4.6452  12.2966   H         1 RES1   0.0000
    82 H34     10.3378   5.8108  13.2218   H         1 RES1   0.0000
    83 H35      9.7425   9.0455  10.0150   H         1 RES1   0.0000
    84 H36     11.5732  10.3716   9.5925   H         1 RES1   0.0000
    85 H37     14.0677  10.6388   9.6029   H         1 RES1   0.0000
    86 H38     16.1135   9.5911   9.9020   H         1 RES1   0.0000
    87 H39     16.2874   7.6350  11.2289   H         1 RES1   0.0000
    88 H40     14.4253   6.4413  11.7280   H         1 RES1   0.0000
    89 H41     12.0025   6.1958  11.6793   H         1 RES1   0.0000
@<TRIPOS>BOND
     1     1     6    2
     2     2     9    2
     3     3    38    1
     4     4    11    2
     5     5    11    2
     6     7     1    2
     7     8    25    1
     8    10     2    2
     9    11    17    1
    10    12     1    1
    11    13     2    1
    12    14     1    1
    13    15    14   ar
    14    16    15   ar
    15    17    16   ar
    16    18    17   ar
    17    19    14   ar
    18    20    12    1
    19    21    20    1
    20    22    21    1
    21    23    21    1
    22    24    12    1
    23    25    24    1
    24    26    25    1
    25    27    26    1
    26    28    27    1
    27    29    28   ar
    28    30    29   ar
    29    31    30   ar
    30    32    31   ar
    31    33    28   ar
    32    34    26    1
    33    35    34    2
    34    36    13    1
    35    37     2    1
    36    38    36    1
    37    39     3    1
    38    40    39   ar
    39    41    40   ar
    40    42    41   ar
    41    43    42   ar
    42    44    43   ar
    43    45    44   ar
    44    46    45   ar
    45    47    42   ar
    46    48    39   ar
    47    49     8    1
    48    50    13    1
    49    51    15    1
    50    52    16    1
    51    53    18    1
    52    54    19    1
    53    55    20    1
    54    56    20    1
    55    57    21    1
    56    58    22    1
    57    59    22    1
    58    60    22    1
    59    61    23    1
    60    62    23    1
    61    63    23    1
    62    64    24    1
    63    65    24    1
    64    66    25    1
    65    67    26    1
    66    68    27    1
    67    69    27    1
    68    70    29    1
    69    71    30    1
    70    72    31    1
    71    73    32    1
    72    74    33    1
    73    75    34    1
    74    76    35    1
    75    77    36    1
    76    78    37    1
    77    79    37    1
    78    80    37    1
    79    81    38    1
    80    82    38    1
    81    83    40    1
    82    84    41    1
    83    85    43    1
    84    86    44    1
    85    87    45    1
    86    88    46    1
    87    89    48    1
    88    18    19   ar
    89    32    33   ar
    90    35    36    1
    91    46    47   ar
    92    47    48   ar
@<TRIPOS>SUBSTRUCTURE
     1 RES1        1 GROUP             0 ****  ****    0  
@<TRIPOS>CRYSIN
   17.2500    5.8600   19.2800   90.0000  115.5800   90.0000     4     1
