@<TRIPOS>MOLECULE
02
    17    18     1     0     0
SMALL
NO_CHARGES
****
Generated from the CSD

@<TRIPOS>ATOM
     1 C26     10.6974   7.5037  11.0219   C.ar      1 RES2   0.0000
     2 C27     10.5504   8.7507  10.3020   C.ar      1 RES2   0.0000
     3 C28     11.6636   9.5782   9.9837   C.ar      1 RES2   0.0000
     4 C29     12.9455   8.9717  10.2968   C.ar      1 RES2   0.0000
     5 C30     14.1086   9.7786   9.9750   C.ar      1 RES2   0.0000
     6 C31     15.3519   9.1867  10.2463   C.ar      1 RES2   0.0000
     7 C32     15.4201   7.9028  11.0011   C.ar      1 RES2   0.0000
     8 C33     14.3013   7.3449  11.2915   C.ar      1 RES2   0.0000
     9 C34     13.0134   7.7375  11.0306   C.ar      1 RES2   0.0000
    10 C35     11.8627   7.0918  11.2758   C.ar      1 RES2   0.0000
    11 H35      9.7425   9.0455  10.0150   H         1 RES2   0.0000
    12 H36     11.5732  10.3716   9.5925   H         1 RES2   0.0000
    13 H37     14.0677  10.6388   9.6029   H         1 RES2   0.0000
    14 H38     16.1135   9.5911   9.9020   H         1 RES2   0.0000
    15 H39     16.2874   7.6350  11.2289   H         1 RES2   0.0000
    16 H40     14.4253   6.4413  11.7280   H         1 RES2   0.0000
    17 H41     12.0025   6.1958  11.6793   H         1 RES2   0.0000
@<TRIPOS>BOND
     1     2     1   ar
     2     3     2   ar
     3     4     3   ar
     4     5     4   ar
     5     6     5   ar
     6     7     6   ar
     7     8     7   ar
     8     9     4   ar
     9    10     1   ar
    10    11     2    1
    11    12     3    1
    12    13     5    1
    13    14     6    1
    14    15     7    1
    15    16     8    1
    16    17    10    1
    17     8     9   ar
    18     9    10   ar
@<TRIPOS>SUBSTRUCTURE
     1 RES2        1 GROUP             0 ****  ****    0  
