@<TRIPOS>MOLECULE
01
    13    13     1     0     0
SMALL
NO_CHARGES
****
Generated from the CSD

@<TRIPOS>ATOM
     1 O1       4.1531   7.4727  20.9778   O.2       1 RES1   0.0000
     2 O2       6.1600   6.5386  20.7674   O.2       1 RES1   0.0000
     3 N1       4.9943   6.7847  20.6944   N.pl3     1 RES1   0.0000
     4 C1       3.3970   3.8957  17.9519   C.ar      1 RES1   0.0000
     5 C2       4.7469   3.7856  18.2563   C.ar      1 RES1   0.0000
     6 C3       5.2374   4.7882  19.1884   C.ar      1 RES1   0.0000
     7 C4       4.4298   5.5547  19.6179   C.ar      1 RES1   0.0000
     8 C5       3.0668   5.8319  19.3553   C.ar      1 RES1   0.0000
     9 C6       2.5762   4.8263  18.4632   C.ar      1 RES1   0.0000
    10 H3       5.2227   3.0109  17.8893   H         1 RES1   0.0000
    11 H4       6.1620   4.7753  19.3866   H         1 RES1   0.0000
    12 H5       2.5313   6.4765  19.7605   H         1 RES1   0.0000
    13 H6       1.6515   4.8521  18.2111   H         1 RES1   0.0000
@<TRIPOS>BOND
     1     1     3    2
     2     2     3    2
     3     3     7    1
     4     5     4   ar
     5     6     5   ar
     6     7     6   ar
     7     8     7   ar
     8     9     4   ar
     9    10     5    1
    10    11     6    1
    11    12     8    1
    12    13     9    1
    13     8     9   ar
@<TRIPOS>SUBSTRUCTURE
     1 RES1        1 GROUP             0 ****  ****    0  
