@<TRIPOS>MOLECULE
02
    14    14     1     0     0
SMALL
NO_CHARGES
****
Generated from the CSD

@<TRIPOS>ATOM
     1 C34      6.0183   9.9058   5.9599   C.3       1 RES2   0.0000
     2 H54      5.5937   9.9628   5.0678   H         1 RES2   0.0000
     3 H55      6.5331   9.0617   6.0024   H         1 RES2   0.0000
     4 C35      6.9439  11.0741   6.1549   C.ar      1 RES2   0.0000
     5 C36      7.0843  11.7250   7.3719   C.ar      1 RES2   0.0000
     6 H56      6.5317  11.4900   8.1080   H         1 RES2   0.0000
     7 C37      8.0445  12.7271   7.5042   C.ar      1 RES2   0.0000
     8 H57      8.1436  13.1749   8.3361   H         1 RES2   0.0000
     9 C38      8.8474  13.0738   6.4467   C.ar      1 RES2   0.0000
    10 H58      9.5053  13.7513   6.5507   H         1 RES2   0.0000
    11 C39      8.6976  12.4417   5.2380   C.ar      1 RES2   0.0000
    12 H59      9.2456  12.6899   4.5030   H         1 RES2   0.0000
    13 C40      7.7529  11.4433   5.0867   C.ar      1 RES2   0.0000
    14 H60      7.6561  11.0078   4.2478   H         1 RES2   0.0000
@<TRIPOS>BOND
     1     2     1    1
     2     3     1    1
     3     4     1    1
     4     5     4   ar
     5     6     5    1
     6     7     5   ar
     7     8     7    1
     8     9     7   ar
     9    10     9    1
    10    11     9   ar
    11    12    11    1
    12    13     4   ar
    13    14    13    1
    14    11    13   ar
@<TRIPOS>SUBSTRUCTURE
     1 RES2        1 GROUP             0 ****  ****    0  
