@<TRIPOS>MOLECULE
ANUHEX
   111   115     1     0     0
SMALL
NO_CHARGES
****
Generated from the CSD

@<TRIPOS>ATOM
     1 O1       7.3904   4.0635  14.2453   O.3       1 RES1   0.0000
     2 O2       5.5463   4.9549  13.2578   O.2       1 RES1   0.0000
     3 O3       4.0299   4.6416  10.1201   O.2       1 RES1   0.0000
     4 O4       0.8527   4.3326  12.0321   O.2       1 RES1   0.0000
     5 O5       2.4816   9.2579  11.1937   O.2       1 RES1   0.0000
     6 O6       4.9901   7.6730   6.9690   O.2       1 RES1   0.0000
     7 O7       4.9993   9.9045   6.9829   O.3       1 RES1   0.0000
     8 N1       7.4400   4.5206  12.0900   N.am      1 RES1   0.0000
     9 H1       8.2714   4.2347  12.1431   H         1 RES1   0.0000
    10 N2       4.3570   2.5004  10.7357   N.am      1 RES1   0.0000
    11 H2       4.9259   1.8317  10.7796   H         1 RES1   0.0000
    12 N3       2.6764   5.2163  13.0382   N.am      1 RES1   0.0000
    13 H3       3.4851   5.0551  13.3472   H         1 RES1   0.0000
    14 N4       3.3667   7.3448  10.3852   N.am      1 RES1   0.0000
    15 H4       3.8661   6.6457  10.5752   H         1 RES1   0.0000
    16 C1       7.9300   3.3615  16.3909   C.3       1 RES1   0.0000
    17 H5       7.9829   2.4354  16.0754   H         1 RES1   0.0000
    18 H6       7.7007   3.3702  17.3445   H         1 RES1   0.0000
    19 H7       8.7953   3.8018  16.2586   H         1 RES1   0.0000
    20 C2       5.5341   3.3458  15.7021   C.3       1 RES1   0.0000
    21 H8       4.8283   3.8571  15.2542   H         1 RES1   0.0000
    22 H9       5.2989   3.2212  16.6450   H         1 RES1   0.0000
    23 H10      5.6280   2.4710  15.2696   H         1 RES1   0.0000
    24 C3       6.7203   5.5315  16.0636   C.3       1 RES1   0.0000
    25 H11      7.5966   5.9697  16.0282   H         1 RES1   0.0000
    26 H12      6.3852   5.5472  16.9841   H         1 RES1   0.0000
    27 H13      6.0935   6.0062  15.4799   H         1 RES1   0.0000
    28 C4       6.8539   4.1067  15.6028   C.3       1 RES1   0.0000
    29 C5       6.6963   4.5514  13.1995   C.2       1 RES1   0.0000
    30 C6       6.9262   4.9416  10.7973   C.3       1 RES1   0.0000
    31 H14      6.2458   5.6604  10.9403   H         1 RES1   0.0000
    32 C7       8.0216   5.4789   9.8769   C.3       1 RES1   0.0000
    33 H15      8.2705   6.4063  10.1203   H         1 RES1   0.0000
    34 H16      8.8297   4.9073   9.9111   H         1 RES1   0.0000
    35 C8       7.3756   5.4286   8.5180   C.3       1 RES1   0.0000
    36 H17      8.0643   5.4046   7.8067   H         1 RES1   0.0000
    37 H18      6.8016   6.2215   8.3762   H         1 RES1   0.0000
    38 C9       6.5486   4.1646   8.4979   C.3       1 RES1   0.0000
    39 H19      7.0433   3.4352   8.0454   H         1 RES1   0.0000
    40 H20      5.6973   4.3171   8.0159   H         1 RES1   0.0000
    41 C10      6.2741   3.7934   9.9797   C.3       1 RES1   0.0000
    42 H21      6.7242   2.9275  10.1982   H         1 RES1   0.0000
    43 C11      4.7878   3.6900  10.2892   C.2       1 RES1   0.0000
    44 C12      2.9821   2.2803  11.1494   C.3       1 RES1   0.0000
    45 H22      2.3625   2.6906  10.4818   H         1 RES1   0.0000
    46 C13      2.6705   0.7837  11.2853   C.3       1 RES1   0.0000
    47 H23      2.4623   0.3875  10.4027   H         1 RES1   0.0000
    48 H24      3.4390   0.2993  11.6800   H         1 RES1   0.0000
    49 C14      1.4535   0.7151  12.2117   C.3       1 RES1   0.0000
    50 C15      0.1837   1.0822  11.4377   C.3       1 RES1   0.0000
    51 H25      0.2935   1.9668  11.0301   H         1 RES1   0.0000
    52 H26     -0.5800   1.0976  12.0521   H         1 RES1   0.0000
    53 H27      0.0254   0.4161  10.7359   H         1 RES1   0.0000
    54 C16      1.2972  -0.6613  12.8615   C.3       1 RES1   0.0000
    55 H28      1.0386  -1.3170  12.1798   H         1 RES1   0.0000
    56 H29      0.6049  -0.6192  13.5539   H         1 RES1   0.0000
    57 H30      2.1477  -0.9295  13.2668   H         1 RES1   0.0000
    58 C17      1.7923   1.7899  13.2645   C.3       1 RES1   0.0000
    59 H31      2.2806   1.3834  14.0230   H         1 RES1   0.0000
    60 H32      0.9636   2.2054  13.6095   H         1 RES1   0.0000
    61 C18      2.6789   2.8580  12.5650   C.3       1 RES1   0.0000
    62 H33      3.5367   2.9525  13.0695   H         1 RES1   0.0000
    63 C19      1.9861   4.2036  12.5106   C.2       1 RES1   0.0000
    64 C20      2.1589   6.5753  13.1298   C.3       1 RES1   0.0000
    65 H34      1.4020   6.6788  12.4846   H         1 RES1   0.0000
    66 C21      1.6718   6.9436  14.5299   C.3       1 RES1   0.0000
    67 H35      0.7283   6.6736  14.6599   H         1 RES1   0.0000
    68 H36      2.2303   6.5135  15.2247   H         1 RES1   0.0000
    69 C22      1.8166   8.4535  14.5736   C.3       1 RES1   0.0000
    70 H37      1.8287   8.7830  15.5071   H         1 RES1   0.0000
    71 H38      1.0776   8.8961  14.0845   H         1 RES1   0.0000
    72 C23      3.1637   8.7053  13.8812   C.3       1 RES1   0.0000
    73 H39      3.9097   8.6213  14.5276   H         1 RES1   0.0000
    74 H40      3.1879   9.6112  13.4830   H         1 RES1   0.0000
    75 C24      3.2661   7.6267  12.7883   C.3       1 RES1   0.0000
    76 H41      4.1664   7.1926  12.8273   H         1 RES1   0.0000
    77 C25      3.0164   8.1626  11.3834   C.2       1 RES1   0.0000
    78 C26      2.9677   7.5484   8.9989   C.3       1 RES1   0.0000
    79 H42      3.3719   6.8114   8.4578   H         1 RES1   0.0000
    80 C27      1.4390   7.5017   8.7803   C.3       1 RES1   0.0000
    81 H43      1.1309   6.5690   8.6563   H         1 RES1   0.0000
    82 H44      0.9618   7.8951   9.5531   H         1 RES1   0.0000
    83 C28      1.1914   8.3283   7.5090   C.3       1 RES1   0.0000
    84 C29     -0.2547   8.8167   7.4097   C.3       1 RES1   0.0000
    85 H45     -0.3548   9.3802   6.6133   H         1 RES1   0.0000
    86 H46     -0.4797   9.3383   8.2085   H         1 RES1   0.0000
    87 H47     -0.8563   8.0464   7.3424   H         1 RES1   0.0000
    88 C30      1.5444   7.5272   6.2553   C.3       1 RES1   0.0000
    89 H48      0.9427   6.7569   6.1797   H         1 RES1   0.0000
    90 H49      2.4707   7.2135   6.3179   H         1 RES1   0.0000
    91 H50      1.4448   8.0972   5.4648   H         1 RES1   0.0000
    92 C31      2.1636   9.4996   7.7098   C.3       1 RES1   0.0000
    93 H51      1.7608  10.1904   8.2935   H         1 RES1   0.0000
    94 H52      2.3944   9.9131   6.8402   H         1 RES1   0.0000
    95 C32      3.4291   8.8888   8.3786   C.3       1 RES1   0.0000
    96 H53      3.7341   9.4972   9.1124   H         1 RES1   0.0000
    97 C33      4.5551   8.7140   7.3873   C.2       1 RES1   0.0000
    98 C34      6.0183   9.9058   5.9599   C.3       1 RES1   0.0000
    99 H54      5.5937   9.9628   5.0678   H         1 RES1   0.0000
   100 H55      6.5331   9.0617   6.0024   H         1 RES1   0.0000
   101 C35      6.9439  11.0741   6.1549   C.ar      1 RES1   0.0000
   102 C36      7.0843  11.7250   7.3719   C.ar      1 RES1   0.0000
   103 H56      6.5317  11.4900   8.1080   H         1 RES1   0.0000
   104 C37      8.0445  12.7271   7.5042   C.ar      1 RES1   0.0000
   105 H57      8.1436  13.1749   8.3361   H         1 RES1   0.0000
   106 C38      8.8474  13.0738   6.4467   C.ar      1 RES1   0.0000
   107 H58      9.5053  13.7513   6.5507   H         1 RES1   0.0000
   108 C39      8.6976  12.4417   5.2380   C.ar      1 RES1   0.0000
   109 H59      9.2456  12.6899   4.5030   H         1 RES1   0.0000
   110 C40      7.7529  11.4433   5.0867   C.ar      1 RES1   0.0000
   111 H60      7.6561  11.0078   4.2478   H         1 RES1   0.0000
@<TRIPOS>BOND
     1     1    28    1
     2     2    29    2
     3     3    43    2
     4     4    63    2
     5     5    77    2
     6     6    97    2
     7     7    97    1
     8     8     9    1
     9    10    11    1
    10    12    13    1
    11    14    15    1
    12    16    17    1
    13    18    16    1
    14    19    16    1
    15    20    21    1
    16    22    20    1
    17    23    20    1
    18    24    25    1
    19    26    24    1
    20    27    24    1
    21    28    16    1
    22    29     1    1
    23    30     8    1
    24    31    30    1
    25    32    30    1
    26    33    32    1
    27    34    32    1
    28    35    32    1
    29    36    35    1
    30    37    35    1
    31    38    35    1
    32    39    38    1
    33    40    38    1
    34    41    30    1
    35    42    41    1
    36    43    10   am
    37    44    10    1
    38    45    44    1
    39    46    44    1
    40    47    46    1
    41    48    46    1
    42    49    46    1
    43    50    49    1
    44    51    50    1
    45    52    50    1
    46    53    50    1
    47    54    49    1
    48    55    54    1
    49    56    54    1
    50    57    54    1
    51    58    49    1
    52    59    58    1
    53    60    58    1
    54    61    44    1
    55    62    61    1
    56    63    12   am
    57    64    12    1
    58    65    64    1
    59    66    64    1
    60    67    66    1
    61    68    66    1
    62    69    66    1
    63    70    69    1
    64    71    69    1
    65    72    69    1
    66    73    72    1
    67    74    72    1
    68    75    64    1
    69    76    75    1
    70    77    14   am
    71    78    14    1
    72    79    78    1
    73    80    78    1
    74    81    80    1
    75    82    80    1
    76    83    80    1
    77    84    83    1
    78    85    84    1
    79    86    84    1
    80    87    84    1
    81    88    83    1
    82    89    88    1
    83    90    88    1
    84    91    88    1
    85    92    83    1
    86    93    92    1
    87    94    92    1
    88    95    78    1
    89    96    95    1
    90    97    95    1
    91    98     7    1
    92    99    98    1
    93   100    98    1
    94   101    98    1
    95   102   101   ar
    96   103   102    1
    97   104   102   ar
    98   105   104    1
    99   106   104   ar
   100   107   106    1
   101   108   106   ar
   102   109   108    1
   103   110   101   ar
   104   111   110    1
   105     8    29   am
   106    20    28    1
   107    24    28    1
   108    38    41    1
   109    41    43    1
   110    58    61    1
   111    61    63    1
   112    72    75    1
   113    75    77    1
   114    92    95    1
   115   108   110   ar
@<TRIPOS>SUBSTRUCTURE
     1 RES1        1 GROUP             0 ****  ****    0  
@<TRIPOS>CRYSIN
    9.4910    9.6240   11.8990   94.2250   93.2870  112.3100     1     1
