@<TRIPOS>MOLECULE
01
    31    31     1     0     0
SMALL
NO_CHARGES
****
Generated from the CSD

@<TRIPOS>ATOM
     1 O1       7.3904   4.0635  14.2453   O.3       1 RES1   0.0000
     2 O2       5.5463   4.9549  13.2578   O.2       1 RES1   0.0000
     3 N1       7.4400   4.5206  12.0900   N.am      1 RES1   0.0000
     4 H1       8.2714   4.2347  12.1431   H         1 RES1   0.0000
     5 C1       7.9300   3.3615  16.3909   C.3       1 RES1   0.0000
     6 H5       7.9829   2.4354  16.0754   H         1 RES1   0.0000
     7 H6       7.7007   3.3702  17.3445   H         1 RES1   0.0000
     8 H7       8.7953   3.8018  16.2586   H         1 RES1   0.0000
     9 C2       5.5341   3.3458  15.7021   C.3       1 RES1   0.0000
    10 H8       4.8283   3.8571  15.2542   H         1 RES1   0.0000
    11 H9       5.2989   3.2212  16.6450   H         1 RES1   0.0000
    12 H10      5.6280   2.4710  15.2696   H         1 RES1   0.0000
    13 C3       6.7203   5.5315  16.0636   C.3       1 RES1   0.0000
    14 H11      7.5966   5.9697  16.0282   H         1 RES1   0.0000
    15 H12      6.3852   5.5472  16.9841   H         1 RES1   0.0000
    16 H13      6.0935   6.0062  15.4799   H         1 RES1   0.0000
    17 C4       6.8539   4.1067  15.6028   C.3       1 RES1   0.0000
    18 C5       6.6963   4.5514  13.1995   C.2       1 RES1   0.0000
    19 C6       6.9262   4.9416  10.7973   C.3       1 RES1   0.0000
    20 H14      6.2458   5.6604  10.9403   H         1 RES1   0.0000
    21 C7       8.0216   5.4789   9.8769   C.3       1 RES1   0.0000
    22 H15      8.2705   6.4063  10.1203   H         1 RES1   0.0000
    23 H16      8.8297   4.9073   9.9111   H         1 RES1   0.0000
    24 C8       7.3756   5.4286   8.5180   C.3       1 RES1   0.0000
    25 H17      8.0643   5.4046   7.8067   H         1 RES1   0.0000
    26 H18      6.8016   6.2215   8.3762   H         1 RES1   0.0000
    27 C9       6.5486   4.1646   8.4979   C.3       1 RES1   0.0000
    28 H19      7.0433   3.4352   8.0454   H         1 RES1   0.0000
    29 H20      5.6973   4.3171   8.0159   H         1 RES1   0.0000
    30 C10      6.2741   3.7934   9.9797   C.3       1 RES1   0.0000
    31 H21      6.7242   2.9275  10.1982   H         1 RES1   0.0000
@<TRIPOS>BOND
     1     1    17    1
     2     2    18    2
     3     3     4    1
     4     5     6    1
     5     7     5    1
     6     8     5    1
     7     9    10    1
     8    11     9    1
     9    12     9    1
    10    13    14    1
    11    15    13    1
    12    16    13    1
    13    17     5    1
    14    18     1    1
    15    19     3    1
    16    20    19    1
    17    21    19    1
    18    22    21    1
    19    23    21    1
    20    24    21    1
    21    25    24    1
    22    26    24    1
    23    27    24    1
    24    28    27    1
    25    29    27    1
    26    30    19    1
    27    31    30    1
    28     3    18   am
    29     9    17    1
    30    13    17    1
    31    27    30    1
@<TRIPOS>SUBSTRUCTURE
     1 RES1        1 GROUP             0 ****  ****    0  
