@<TRIPOS>MOLECULE
02
    11    11     1     0     0
SMALL
NO_CHARGES
****
Generated from the CSD

@<TRIPOS>ATOM
     1 F1       6.0274  11.7583   1.7596   F         1 RES2   0.0000
     2 F2       5.9458  13.4479   6.1478   F         1 RES2   0.0000
     3 F3       5.2978  11.0171   7.0582   F         1 RES2   0.0000
     4 C1       5.8367  11.5747   3.0829   C.ar      1 RES2   0.0000
     5 C2       5.9963  12.6397   3.9320   C.ar      1 RES2   0.0000
     6 H3       6.2346  13.4783   3.6066   H         1 RES2   0.0000
     7 C3       5.7939  12.4335   5.2699   C.ar      1 RES2   0.0000
     8 C4       5.4469  11.1980   5.7293   C.ar      1 RES2   0.0000
     9 C5       5.2656  10.1262   4.8861   C.ar      1 RES2   0.0000
    10 H4       5.0204   9.2944   5.2230   H         1 RES2   0.0000
    11 C6       5.4564  10.3080   3.5148   C.ar      1 RES2   0.0000
@<TRIPOS>BOND
     1     1     4    1
     2     2     7    1
     3     3     8    1
     4     4     5   ar
     5     5     6    1
     6     7     5   ar
     7     8     7   ar
     8     9     8   ar
     9    10     9    1
    10     4    11   ar
    11     9    11   ar
@<TRIPOS>SUBSTRUCTURE
     1 RES2        1 GROUP             0 ****  ****    0  
