@<TRIPOS>MOLECULE
AWEZIO
    52    55     1     0     0
SMALL
NO_CHARGES
****
Generated from the CSD

@<TRIPOS>ATOM
     1 Cl1     -0.7714  -3.0819   1.9813   Cl        1 RES1   0.0000
     2 F1       6.0274  11.7583   1.7596   F         1 RES1   0.0000
     3 F2       5.9458  13.4479   6.1478   F         1 RES1   0.0000
     4 F3       5.2978  11.0171   7.0582   F         1 RES1   0.0000
     5 O1       4.9054   7.5361   3.9325   O.2       1 RES1   0.0000
     6 O2       3.4210   5.0052   0.1568   O.2       1 RES1   0.0000
     7 N1       5.2454   9.3031   2.5542   N.am      1 RES1   0.0000
     8 H1       5.2914   9.5006   1.7544   H         1 RES1   0.0000
     9 N2       3.9680   5.9640   2.1197   N.am      1 RES1   0.0000
    10 H2       3.9591   5.8378   2.9463   H         1 RES1   0.0000
    11 N3       2.5260   4.0874   3.5183   N.2       1 RES1   0.0000
    12 N4       1.7510   2.2090   2.7189   N.pl3     1 RES1   0.0000
    13 N5       2.2802   2.8528   1.6365   N.2       1 RES1   0.0000
    14 C1       5.8367  11.5747   3.0829   C.ar      1 RES1   0.0000
    15 C2       5.9963  12.6397   3.9320   C.ar      1 RES1   0.0000
    16 H3       6.2346  13.4783   3.6066   H         1 RES1   0.0000
    17 C3       5.7939  12.4335   5.2699   C.ar      1 RES1   0.0000
    18 C4       5.4469  11.1980   5.7293   C.ar      1 RES1   0.0000
    19 C5       5.2656  10.1262   4.8861   C.ar      1 RES1   0.0000
    20 H4       5.0204   9.2944   5.2230   H         1 RES1   0.0000
    21 C6       5.4564  10.3080   3.5148   C.ar      1 RES1   0.0000
    22 C7       4.9472   8.0103   2.8175   C.2       1 RES1   0.0000
    23 C8       4.6103   7.1550   1.6075   C.3       1 RES1   0.0000
    24 H5       4.0133   7.6318   1.0098   H         1 RES1   0.0000
    25 H6       5.4163   6.9227   1.1209   H         1 RES1   0.0000
    26 C9       3.4085   5.0244   1.3763   C.2       1 RES1   0.0000
    27 C10      2.7296   3.9656   2.1753   C.2       1 RES1   0.0000
    28 C11      1.9110   2.9676   3.8366   C.2       1 RES1   0.0000
    29 C12      1.1272   0.9301   2.5596   C.ar      1 RES1   0.0000
    30 C13      1.5657  -0.1523   3.3026   C.ar      1 RES1   0.0000
    31 H7       2.2598  -0.0496   3.9133   H         1 RES1   0.0000
    32 C14      0.9665  -1.3886   3.1325   C.ar      1 RES1   0.0000
    33 H8       1.2444  -2.1220   3.6320   H         1 RES1   0.0000
    34 C15     -0.0448  -1.5121   2.2124   C.ar      1 RES1   0.0000
    35 C16     -0.4908  -0.4524   1.4705   C.ar      1 RES1   0.0000
    36 H9      -1.1802  -0.5646   0.8571   H         1 RES1   0.0000
    37 C17      0.0970   0.7908   1.6459   C.ar      1 RES1   0.0000
    38 H10     -0.1969   1.5234   1.1531   H         1 RES1   0.0000
    39 C18      1.3509   2.6144   5.1800   C.3       1 RES1   0.0000
    40 H11      1.5208   1.6643   5.3529   H         1 RES1   0.0000
    41 C19      1.9137   3.4279   6.3279   C.3       1 RES1   0.0000
    42 H12      2.0160   4.3588   6.0748   H         1 RES1   0.0000
    43 H13      2.7756   3.0816   6.6078   H         1 RES1   0.0000
    44 C20      0.8798   3.2756   7.4381   C.3       1 RES1   0.0000
    45 H14      1.1394   2.5648   8.0461   H         1 RES1   0.0000
    46 H15      0.8028   4.1004   7.9430   H         1 RES1   0.0000
    47 C21     -0.4230   2.9459   6.7779   C.3       1 RES1   0.0000
    48 H16     -1.0813   3.6323   6.9681   H         1 RES1   0.0000
    49 H17     -0.7599   2.0967   7.1020   H         1 RES1   0.0000
    50 C22     -0.1546   2.8728   5.2820   C.3       1 RES1   0.0000
    51 H18     -0.3932   3.7054   4.8467   H         1 RES1   0.0000
    52 H19     -0.6587   2.1498   4.8762   H         1 RES1   0.0000
@<TRIPOS>BOND
     1     1    34    1
     2     2    14    1
     3     3    17    1
     4     4    18    1
     5     5    22    2
     6     6    26    2
     7     7     8    1
     8     9    10    1
     9    11    27    1
    10    12    13    1
    11    13    27    2
    12    14    15   ar
    13    15    16    1
    14    17    15   ar
    15    18    17   ar
    16    19    18   ar
    17    20    19    1
    18    21     7    1
    19    22     7   am
    20    23     9    1
    21    24    23    1
    22    25    23    1
    23    26     9   am
    24    27    26    1
    25    28    11    2
    26    29    12    1
    27    30    29   ar
    28    31    30    1
    29    32    30   ar
    30    33    32    1
    31    34    32   ar
    32    35    34   ar
    33    36    35    1
    34    37    29   ar
    35    38    37    1
    36    39    28    1
    37    40    39    1
    38    41    39    1
    39    42    41    1
    40    43    41    1
    41    44    41    1
    42    45    44    1
    43    46    44    1
    44    47    44    1
    45    48    47    1
    46    49    47    1
    47    50    39    1
    48    51    50    1
    49    52    50    1
    50    12    28    1
    51    14    21   ar
    52    19    21   ar
    53    22    23    1
    54    35    37   ar
    55    47    50    1
@<TRIPOS>SUBSTRUCTURE
     1 RES1        1 GROUP             0 ****  ****    0  
@<TRIPOS>CRYSIN
    9.3083    8.7002   13.4031   90.0000   92.2920   90.0000     4     1
