@<TRIPOS>MOLECULE
01
    30    32     1     0     0
SMALL
NO_CHARGES
****
Generated from the CSD

@<TRIPOS>ATOM
     1 Cl1     -0.7714  -3.0819   1.9813   Cl        1 RES1   0.0000
     2 N3       2.5260   4.0874   3.5183   N.2       1 RES1   0.0000
     3 N4       1.7510   2.2090   2.7189   N.pl3     1 RES1   0.0000
     4 N5       2.2802   2.8528   1.6365   N.2       1 RES1   0.0000
     5 C10      2.7296   3.9656   2.1753   C.2       1 RES1   0.0000
     6 C11      1.9110   2.9676   3.8366   C.2       1 RES1   0.0000
     7 C12      1.1272   0.9301   2.5596   C.ar      1 RES1   0.0000
     8 C13      1.5657  -0.1523   3.3026   C.ar      1 RES1   0.0000
     9 H7       2.2598  -0.0496   3.9133   H         1 RES1   0.0000
    10 C14      0.9665  -1.3886   3.1325   C.ar      1 RES1   0.0000
    11 H8       1.2444  -2.1220   3.6320   H         1 RES1   0.0000
    12 C15     -0.0448  -1.5121   2.2124   C.ar      1 RES1   0.0000
    13 C16     -0.4908  -0.4524   1.4705   C.ar      1 RES1   0.0000
    14 H9      -1.1802  -0.5646   0.8571   H         1 RES1   0.0000
    15 C17      0.0970   0.7908   1.6459   C.ar      1 RES1   0.0000
    16 H10     -0.1969   1.5234   1.1531   H         1 RES1   0.0000
    17 C18      1.3509   2.6144   5.1800   C.3       1 RES1   0.0000
    18 H11      1.5208   1.6643   5.3529   H         1 RES1   0.0000
    19 C19      1.9137   3.4279   6.3279   C.3       1 RES1   0.0000
    20 H12      2.0160   4.3588   6.0748   H         1 RES1   0.0000
    21 H13      2.7756   3.0816   6.6078   H         1 RES1   0.0000
    22 C20      0.8798   3.2756   7.4381   C.3       1 RES1   0.0000
    23 H14      1.1394   2.5648   8.0461   H         1 RES1   0.0000
    24 H15      0.8028   4.1004   7.9430   H         1 RES1   0.0000
    25 C21     -0.4230   2.9459   6.7779   C.3       1 RES1   0.0000
    26 H16     -1.0813   3.6323   6.9681   H         1 RES1   0.0000
    27 H17     -0.7599   2.0967   7.1020   H         1 RES1   0.0000
    28 C22     -0.1546   2.8728   5.2820   C.3       1 RES1   0.0000
    29 H18     -0.3932   3.7054   4.8467   H         1 RES1   0.0000
    30 H19     -0.6587   2.1498   4.8762   H         1 RES1   0.0000
@<TRIPOS>BOND
     1     1    12    1
     2     2     5    1
     3     3     4    1
     4     4     5    2
     5     6     2    2
     6     7     3    1
     7     8     7   ar
     8     9     8    1
     9    10     8   ar
    10    11    10    1
    11    12    10   ar
    12    13    12   ar
    13    14    13    1
    14    15     7   ar
    15    16    15    1
    16    17     6    1
    17    18    17    1
    18    19    17    1
    19    20    19    1
    20    21    19    1
    21    22    19    1
    22    23    22    1
    23    24    22    1
    24    25    22    1
    25    26    25    1
    26    27    25    1
    27    28    17    1
    28    29    28    1
    29    30    28    1
    30     3     6    1
    31    13    15   ar
    32    25    28    1
@<TRIPOS>SUBSTRUCTURE
     1 RES1        1 GROUP             0 ****  ****    0  
