@<TRIPOS>MOLECULE
01
    35    37     1     0     0
SMALL
NO_CHARGES
****
Generated from the CSD

@<TRIPOS>ATOM
     1 O3       2.3898   7.3167   7.6125   O.3       1 RES1   0.0000
     2 O4       3.7330   5.9373   8.7534   O.2       1 RES1   0.0000
     3 C1       1.1391   7.3539   2.0392   C.3       1 RES1   0.0000
     4 H2       0.6142   7.7428   1.3222   H         1 RES1   0.0000
     5 H3       0.8421   6.4387   2.1635   H         1 RES1   0.0000
     6 C2       0.9002   8.1317   3.3087   C.3       1 RES1   0.0000
     7 H4      -0.0343   8.0489   3.5561   H         1 RES1   0.0000
     8 H5       1.0783   9.0698   3.1405   H         1 RES1   0.0000
     9 C3       1.7693   7.6647   4.4903   C.3       1 RES1   0.0000
    10 C4       1.5495   8.6024   5.6870   C.3       1 RES1   0.0000
    11 H6       1.5257   9.5143   5.3568   H         1 RES1   0.0000
    12 H7       0.6776   8.4106   6.0675   H         1 RES1   0.0000
    13 C5       2.5673   8.5272   6.7861   C.3       1 RES1   0.0000
    14 H8       2.4607   9.3138   7.3621   H         1 RES1   0.0000
    15 C6       4.0352   8.4379   6.3580   C.3       1 RES1   0.0000
    16 H9       4.3874   9.3247   6.1340   H         1 RES1   0.0000
    17 C7       4.6538   7.9174   7.6705   C.3       1 RES1   0.0000
    18 H10      4.6566   8.6558   8.3139   H         1 RES1   0.0000
    19 C18      2.6139   7.3571   1.6437   C.3       1 RES1   0.0000
    20 H19      2.7495   6.7416   0.9053   H         1 RES1   0.0000
    21 H20      2.8634   8.2439   1.3423   H         1 RES1   0.0000
    22 C19      3.4991   6.9529   2.7997   C.2       1 RES1   0.0000
    23 C20      3.2609   7.7706   4.0403   C.3       1 RES1   0.0000
    24 H21      3.4108   8.7059   3.7897   H         1 RES1   0.0000
    25 C21      4.2172   7.4715   5.1935   C.3       1 RES1   0.0000
    26 H22      4.0666   6.5651   5.5049   H         1 RES1   0.0000
    27 H23      5.1311   7.5282   4.8721   H         1 RES1   0.0000
    28 C30      3.5926   6.9294   8.1033   C.2       1 RES1   0.0000
    29 C31      1.3921   6.2219   4.8658   C.3       1 RES1   0.0000
    30 H34      0.4760   6.1947   5.1521   H         1 RES1   0.0000
    31 H35      1.9590   5.9169   5.5778   H         1 RES1   0.0000
    32 H36      1.5051   5.6521   4.1011   H         1 RES1   0.0000
    33 C32      4.3773   5.9768   2.7148   C.2       1 RES1   0.0000
    34 H37      4.8997   5.7545   3.4519   H         1 RES1   0.0000
    35 H38      4.4767   5.5094   1.9162   H         1 RES1   0.0000
@<TRIPOS>BOND
     1     1    13    1
     2     2    28    2
     3     3     4    1
     4     5     3    1
     5     6     3    1
     6     7     6    1
     7     8     6    1
     8     9     6    1
     9    10     9    1
    10    11    10    1
    11    12    10    1
    12    13    10    1
    13    14    13    1
    14    15    13    1
    15    16    15    1
    16    17    15    1
    17    18    17    1
    18    19     3    1
    19    20    19    1
    20    21    19    1
    21    22    19    1
    22    23     9    1
    23    24    23    1
    24    25    15    1
    25    26    25    1
    26    27    25    1
    27    28     1    1
    28    29     9    1
    29    30    29    1
    30    31    29    1
    31    32    29    1
    32    33    22    2
    33    34    33    1
    34    35    33    1
    35    17    28    1
    36    22    23    1
    37    23    25    1
@<TRIPOS>SUBSTRUCTURE
     1 RES1        1 GROUP             0 ****  ****    0  
