@<TRIPOS>MOLECULE
AXEFUG
    78    83     1     0     0
SMALL
NO_CHARGES
****
Generated from the CSD

@<TRIPOS>ATOM
     1 O1       9.8740  11.2190   7.4599   O.2       1 RES1   0.0000
     2 O2       7.0007   8.6519   9.8537   O.2       1 RES1   0.0000
     3 O3       2.3898   7.3167   7.6125   O.3       1 RES1   0.0000
     4 O4       3.7330   5.9373   8.7534   O.2       1 RES1   0.0000
     5 N1       7.0931   8.3104   7.6066   N.am      1 RES1   0.0000
     6 N2       7.9333  10.8057   1.6622   N.3       1 RES1   0.0000
     7 N3       8.5788   6.0699   1.6392   N.ar      1 RES1   0.0000
     8 N4       8.4643   9.8850   8.6305   N.am      1 RES1   0.0000
     9 H1       8.6612  10.2627   9.3674   H         1 RES1   0.0000
    10 C1       1.1391   7.3539   2.0392   C.3       1 RES1   0.0000
    11 H2       0.6142   7.7428   1.3222   H         1 RES1   0.0000
    12 H3       0.8421   6.4387   2.1635   H         1 RES1   0.0000
    13 C2       0.9002   8.1317   3.3087   C.3       1 RES1   0.0000
    14 H4      -0.0343   8.0489   3.5561   H         1 RES1   0.0000
    15 H5       1.0783   9.0698   3.1405   H         1 RES1   0.0000
    16 C3       1.7693   7.6647   4.4903   C.3       1 RES1   0.0000
    17 C4       1.5495   8.6024   5.6870   C.3       1 RES1   0.0000
    18 H6       1.5257   9.5143   5.3568   H         1 RES1   0.0000
    19 H7       0.6776   8.4106   6.0675   H         1 RES1   0.0000
    20 C5       2.5673   8.5272   6.7861   C.3       1 RES1   0.0000
    21 H8       2.4607   9.3138   7.3621   H         1 RES1   0.0000
    22 C6       4.0352   8.4379   6.3580   C.3       1 RES1   0.0000
    23 H9       4.3874   9.3247   6.1340   H         1 RES1   0.0000
    24 C7       4.6538   7.9174   7.6705   C.3       1 RES1   0.0000
    25 H10      4.6566   8.6558   8.3139   H         1 RES1   0.0000
    26 C8       6.0371   7.2928   7.6753   C.3       1 RES1   0.0000
    27 H11      6.1494   6.7688   8.4834   H         1 RES1   0.0000
    28 H12      6.1200   6.6936   6.9176   H         1 RES1   0.0000
    29 C9       7.5904   8.7078   6.3985   C.2       1 RES1   0.0000
    30 H13      7.2869   8.2723   5.6343   H         1 RES1   0.0000
    31 C10      8.4998   9.6996   6.2507   C.2       1 RES1   0.0000
    32 C11      8.8814  10.1242   4.9409   C.1       1 RES1   0.0000
    33 C12      9.0974  10.4232   3.8108   C.1       1 RES1   0.0000
    34 C13      9.2265  10.7371   2.3663   C.3       1 RES1   0.0000
    35 H14      9.6817  11.5875   2.2703   H         1 RES1   0.0000
    36 H15      9.7766  10.0579   1.9463   H         1 RES1   0.0000
    37 C14      7.1627   9.5527   1.7749   C.3       1 RES1   0.0000
    38 H16      6.9473   9.4064   2.7198   H         1 RES1   0.0000
    39 C15      7.9392   8.3664   1.2751   C.ar      1 RES1   0.0000
    40 C16      7.9913   7.2076   2.0288   C.ar      1 RES1   0.0000
    41 H17      7.5887   7.2199   2.8667   H         1 RES1   0.0000
    42 C17      9.1519   6.0672   0.4340   C.ar      1 RES1   0.0000
    43 H18      9.5578   5.2839   0.1369   H         1 RES1   0.0000
    44 C18      2.6139   7.3571   1.6437   C.3       1 RES1   0.0000
    45 H19      2.7495   6.7416   0.9053   H         1 RES1   0.0000
    46 H20      2.8634   8.2439   1.3423   H         1 RES1   0.0000
    47 C19      3.4991   6.9529   2.7997   C.2       1 RES1   0.0000
    48 C20      3.2609   7.7706   4.0403   C.3       1 RES1   0.0000
    49 H21      3.4108   8.7059   3.7897   H         1 RES1   0.0000
    50 C21      4.2172   7.4715   5.1935   C.3       1 RES1   0.0000
    51 H22      4.0666   6.5651   5.5049   H         1 RES1   0.0000
    52 H23      5.1311   7.5282   4.8721   H         1 RES1   0.0000
    53 C22      7.1490  11.9470   2.1522   C.3       1 RES1   0.0000
    54 H24      7.6722  12.7587   2.0543   H         1 RES1   0.0000
    55 H25      6.9623  11.8250   3.0953   H         1 RES1   0.0000
    56 C23      5.8377  12.1028   1.3976   C.3       1 RES1   0.0000
    57 H26      5.3273  12.8317   1.7843   H         1 RES1   0.0000
    58 H27      6.0221  12.3240   0.4709   H         1 RES1   0.0000
    59 C24      5.0250  10.8369   1.4566   C.3       1 RES1   0.0000
    60 H28      4.2411  10.9262   0.8928   H         1 RES1   0.0000
    61 H29      4.7252  10.6843   2.3670   H         1 RES1   0.0000
    62 C25      5.8537   9.6624   0.9919   C.3       1 RES1   0.0000
    63 H30      6.0527   9.7648   0.0477   H         1 RES1   0.0000
    64 H31      5.3442   8.8453   1.1037   H         1 RES1   0.0000
    65 C26      8.5590   8.3300   0.0290   C.ar      1 RES1   0.0000
    66 H32      8.5607   9.0817  -0.5173   H         1 RES1   0.0000
    67 C27      9.1695   7.1654  -0.3862   C.ar      1 RES1   0.0000
    68 H33      9.5897   7.1251  -1.2155   H         1 RES1   0.0000
    69 C28      9.0208  10.3480   7.4472   C.2       1 RES1   0.0000
    70 C29      7.4865   8.9337   8.7809   C.2       1 RES1   0.0000
    71 C30      3.5926   6.9294   8.1033   C.2       1 RES1   0.0000
    72 C31      1.3921   6.2219   4.8658   C.3       1 RES1   0.0000
    73 H34      0.4760   6.1947   5.1521   H         1 RES1   0.0000
    74 H35      1.9590   5.9169   5.5778   H         1 RES1   0.0000
    75 H36      1.5051   5.6521   4.1011   H         1 RES1   0.0000
    76 C32      4.3773   5.9768   2.7148   C.2       1 RES1   0.0000
    77 H37      4.8997   5.7545   3.4519   H         1 RES1   0.0000
    78 H38      4.4767   5.5094   1.9162   H         1 RES1   0.0000
@<TRIPOS>BOND
     1     1    69    2
     2     2    70    2
     3     3    20    1
     4     4    71    2
     5     5    26    1
     6     6    34    1
     7     7    40   ar
     8     8     9    1
     9    10    11    1
    10    12    10    1
    11    13    10    1
    12    14    13    1
    13    15    13    1
    14    16    13    1
    15    17    16    1
    16    18    17    1
    17    19    17    1
    18    20    17    1
    19    21    20    1
    20    22    20    1
    21    23    22    1
    22    24    22    1
    23    25    24    1
    24    26    24    1
    25    27    26    1
    26    28    26    1
    27    29     5    1
    28    30    29    1
    29    31    29    2
    30    32    31    1
    31    33    32    3
    32    34    33    1
    33    35    34    1
    34    36    34    1
    35    37     6    1
    36    38    37    1
    37    39    37    1
    38    40    39   ar
    39    41    40    1
    40    42     7   ar
    41    43    42    1
    42    44    10    1
    43    45    44    1
    44    46    44    1
    45    47    44    1
    46    48    16    1
    47    49    48    1
    48    50    22    1
    49    51    50    1
    50    52    50    1
    51    53     6    1
    52    54    53    1
    53    55    53    1
    54    56    53    1
    55    57    56    1
    56    58    56    1
    57    59    56    1
    58    60    59    1
    59    61    59    1
    60    62    37    1
    61    63    62    1
    62    64    62    1
    63    65    39   ar
    64    66    65    1
    65    67    42   ar
    66    68    67    1
    67    69     8   am
    68    70     5   am
    69    71     3    1
    70    72    16    1
    71    73    72    1
    72    74    72    1
    73    75    72    1
    74    76    47    2
    75    77    76    1
    76    78    76    1
    77     8    70   am
    78    24    71    1
    79    31    69    1
    80    47    48    1
    81    48    50    1
    82    59    62    1
    83    65    67   ar
@<TRIPOS>SUBSTRUCTURE
     1 RES1        1 GROUP             0 ****  ****    0  
@<TRIPOS>CRYSIN
   10.8880   10.8946   13.2628   90.0000  108.7780   90.0000     4     1
