@<TRIPOS>MOLECULE
02
    25    26     1     0     0
SMALL
NO_CHARGES
****
Generated from the CSD

@<TRIPOS>ATOM
     1 N2       7.9333  10.8057   1.6622   N.2       1 RES2   0.0000
     2 N3       8.5788   6.0699   1.6392   N.ar      1 RES2   0.0000
     3 C14      7.1627   9.5527   1.7749   C.3       1 RES2   0.0000
     4 H16      6.9473   9.4064   2.7198   H         1 RES2   0.0000
     5 C15      7.9392   8.3664   1.2751   C.ar      1 RES2   0.0000
     6 C16      7.9913   7.2076   2.0288   C.ar      1 RES2   0.0000
     7 H17      7.5887   7.2199   2.8667   H         1 RES2   0.0000
     8 C17      9.1519   6.0672   0.4340   C.ar      1 RES2   0.0000
     9 H18      9.5578   5.2839   0.1369   H         1 RES2   0.0000
    10 C22      7.1490  11.9470   2.1522   C.3       1 RES2   0.0000
    11 H24      7.6722  12.7587   2.0543   H         1 RES2   0.0000
    12 H25      6.9623  11.8250   3.0953   H         1 RES2   0.0000
    13 C23      5.8377  12.1028   1.3976   C.3       1 RES2   0.0000
    14 H26      5.3273  12.8317   1.7843   H         1 RES2   0.0000
    15 H27      6.0221  12.3240   0.4709   H         1 RES2   0.0000
    16 C24      5.0250  10.8369   1.4566   C.3       1 RES2   0.0000
    17 H28      4.2411  10.9262   0.8928   H         1 RES2   0.0000
    18 H29      4.7252  10.6843   2.3670   H         1 RES2   0.0000
    19 C25      5.8537   9.6624   0.9919   C.3       1 RES2   0.0000
    20 H30      6.0527   9.7648   0.0477   H         1 RES2   0.0000
    21 H31      5.3442   8.8453   1.1037   H         1 RES2   0.0000
    22 C26      8.5590   8.3300   0.0290   C.ar      1 RES2   0.0000
    23 H32      8.5607   9.0817  -0.5173   H         1 RES2   0.0000
    24 C27      9.1695   7.1654  -0.3862   C.ar      1 RES2   0.0000
    25 H33      9.5897   7.1251  -1.2155   H         1 RES2   0.0000
@<TRIPOS>BOND
     1     2     6   ar
     2     3     1    1
     3     4     3    1
     4     5     3    1
     5     6     5   ar
     6     7     6    1
     7     8     2   ar
     8     9     8    1
     9    10     1    1
    10    11    10    1
    11    12    10    1
    12    13    10    1
    13    14    13    1
    14    15    13    1
    15    16    13    1
    16    17    16    1
    17    18    16    1
    18    19     3    1
    19    20    19    1
    20    21    19    1
    21    22     5   ar
    22    23    22    1
    23    24     8   ar
    24    25    24    1
    25    16    19    1
    26    22    24   ar
@<TRIPOS>SUBSTRUCTURE
     1 RES2        1 GROUP             0 ****  ****    0  
