@<TRIPOS>MOLECULE
AYEMOJ
    71    73     1     0     0
SMALL
NO_CHARGES
****
Generated from the CSD

@<TRIPOS>ATOM
     1 Cl1     15.1855   1.2307  11.8028   Cl        1 RES1   0.0000
     2 S1      16.4054   2.9870  15.9114   S.3       1 RES1   0.0000
     3 O1      14.8007   4.1444  14.0468   O.3       1 RES1   0.0000
     4 O2      14.8723   5.0155  17.6278   O.3       1 RES1   0.0000
     5 H1      15.3381   4.4719  17.7430   H         1 RES1   0.0000
     6 O3      12.2535   3.9107  17.3627   O.3       1 RES1   0.0000
     7 H2      12.2701   3.2495  17.9590   H         1 RES1   0.0000
     8 O4      11.9932   4.6437  14.6004   O.3       1 RES1   0.0000
     9 H3      11.1628   4.4513  14.6106   H         1 RES1   0.0000
    10 O5      10.7590   3.4909  11.5994   O.2       1 RES1   0.0000
    11 O6      10.4979   1.0692   9.6667   O.3       1 RES1   0.0000
    12 N1      12.2680   2.0528  12.4682   N.am      1 RES1   0.0000
    13 H4      12.3776   1.2895  12.7473   H         1 RES1   0.0000
    14 N2       8.8374   1.7227  12.8091   N.3       1 RES1   0.0000
    15 H5       8.5557   1.0367  13.2826   H         1 RES1   0.0000
    16 C1      15.3737   4.3847  15.3105   C.3       1 RES1   0.0000
    17 H6      15.9733   5.1811  15.2205   H         1 RES1   0.0000
    18 C2      14.3070   4.7303  16.3518   C.3       1 RES1   0.0000
    19 H7      13.8449   5.5612  16.0402   H         1 RES1   0.0000
    20 C3      13.2596   3.6239  16.4001   C.3       1 RES1   0.0000
    21 H8      13.7105   2.7708  16.6597   H         1 RES1   0.0000
    22 C4      12.6616   3.4501  15.0023   C.3       1 RES1   0.0000
    23 H9      12.0058   2.6945  15.0156   H         1 RES1   0.0000
    24 C5      13.7910   3.1210  14.0260   C.3       1 RES1   0.0000
    25 H10     14.2024   2.2452  14.2786   H         1 RES1   0.0000
    26 C6      13.3108   3.0561  12.5785   C.3       1 RES1   0.0000
    27 H11     12.8842   3.9375  12.3756   H         1 RES1   0.0000
    28 C7      11.0432   2.3706  11.9968   C.2       1 RES1   0.0000
    29 C8      10.0177   1.2523  12.0444   C.3       1 RES1   0.0000
    30 H12     10.4073   0.4307  12.4614   H         1 RES1   0.0000
    31 C9       9.4783   0.9485  10.6383   C.3       1 RES1   0.0000
    32 H13      9.0887   0.0273  10.6140   H         1 RES1   0.0000
    33 C10     10.3233   0.2373   8.5165   C.3       1 RES1   0.0000
    34 H14     10.6283  -0.6767   8.7444   H         1 RES1   0.0000
    35 H15     10.9128   0.5746   7.7961   H         1 RES1   0.0000
    36 C11      8.8952   0.1444   7.9653   C.3       1 RES1   0.0000
    37 H16      8.4123  -0.5452   8.4871   H         1 RES1   0.0000
    38 H17      8.9518  -0.1816   7.0321   H         1 RES1   0.0000
    39 C12      8.0368   1.4220   7.9677   C.3       1 RES1   0.0000
    40 H18      8.6218   2.2035   7.7516   H         1 RES1   0.0000
    41 C13      7.3856   1.6572   9.3374   C.3       1 RES1   0.0000
    42 H19      6.7391   2.4020   9.2591   H         1 RES1   0.0000
    43 H20      6.8800   0.8454   9.5927   H         1 RES1   0.0000
    44 C14      8.3748   1.9842  10.4460   C.3       1 RES1   0.0000
    45 H21      8.8080   2.8580  10.2249   H         1 RES1   0.0000
    46 C15      7.7631   2.1008  11.8443   C.3       1 RES1   0.0000
    47 H22      7.4592   3.0277  12.0119   H         1 RES1   0.0000
    48 H23      6.9874   1.4922  11.9340   H         1 RES1   0.0000
    49 C16     17.6418   3.0117  14.6031   C.3       1 RES1   0.0000
    50 H24     17.2181   2.7822  13.7496   H         1 RES1   0.0000
    51 H25     18.3444   2.3592  14.8060   H         1 RES1   0.0000
    52 H26     18.0345   3.9071  14.5423   H         1 RES1   0.0000
    53 C17     14.4176   2.8534  11.5469   C.3       1 RES1   0.0000
    54 H27     15.1126   3.5579  11.6878   H         1 RES1   0.0000
    55 C18     13.9125   2.9575  10.1207   C.3       1 RES1   0.0000
    56 H28     14.6547   2.8002   9.4989   H         1 RES1   0.0000
    57 H29     13.5446   3.8530   9.9691   H         1 RES1   0.0000
    58 H30     13.2147   2.2870   9.9723   H         1 RES1   0.0000
    59 C19      6.9320   1.3204   6.9020   C.3       1 RES1   0.0000
    60 H31      6.2439   2.0018   7.1051   H         1 RES1   0.0000
    61 H32      6.5029   0.4327   6.9860   H         1 RES1   0.0000
    62 C20      7.3717   1.5035   5.4379   C.3       1 RES1   0.0000
    63 H33      8.1099   0.8578   5.2451   H         1 RES1   0.0000
    64 C21      6.2080   1.2054   4.4942   C.3       1 RES1   0.0000
    65 H34      5.8756   0.2997   4.6621   H         1 RES1   0.0000
    66 H35      6.5155   1.2735   3.5661   H         1 RES1   0.0000
    67 H36      5.4897   1.8522   4.6478   H         1 RES1   0.0000
    68 C22      7.8913   2.9168   5.2022   C.3       1 RES1   0.0000
    69 H37      8.0557   3.0494   4.2443   H         1 RES1   0.0000
    70 H38      8.7267   3.0437   5.6962   H         1 RES1   0.0000
    71 H39      7.2271   3.5657   5.5135   H         1 RES1   0.0000
@<TRIPOS>BOND
     1     1    53    1
     2     2    16    1
     3     3    16    1
     4     4     5    1
     5     6     7    1
     6     8     9    1
     7    10    28    2
     8    11    31    1
     9    12    13    1
    10    14    15    1
    11    16    17    1
    12    18     4    1
    13    19    18    1
    14    20     6    1
    15    21    20    1
    16    22     8    1
    17    23    22    1
    18    24     3    1
    19    25    24    1
    20    26    12    1
    21    27    26    1
    22    28    12   am
    23    29    14    1
    24    30    29    1
    25    31    29    1
    26    32    31    1
    27    33    11    1
    28    34    33    1
    29    35    33    1
    30    36    33    1
    31    37    36    1
    32    38    36    1
    33    39    36    1
    34    40    39    1
    35    41    39    1
    36    42    41    1
    37    43    41    1
    38    44    31    1
    39    45    44    1
    40    46    14    1
    41    47    46    1
    42    48    46    1
    43    49     2    1
    44    50    49    1
    45    51    49    1
    46    52    49    1
    47    53    26    1
    48    54    53    1
    49    55    53    1
    50    56    55    1
    51    57    55    1
    52    58    55    1
    53    59    39    1
    54    60    59    1
    55    61    59    1
    56    62    59    1
    57    63    62    1
    58    64    62    1
    59    65    64    1
    60    66    64    1
    61    67    64    1
    62    68    62    1
    63    69    68    1
    64    70    68    1
    65    71    68    1
    66    16    18    1
    67    18    20    1
    68    20    22    1
    69    22    24    1
    70    24    26    1
    71    28    29    1
    72    41    44    1
    73    44    46    1
@<TRIPOS>SUBSTRUCTURE
     1 RES1        1 GROUP             0 ****  ****    0  
@<TRIPOS>CRYSIN
   30.4694    5.1579   16.4988   90.0000  105.6838   90.0000     5     1
