@<TRIPOS>MOLECULE
02
    36    37     1     0     0
SMALL
NO_CHARGES
****
Generated from the CSD

@<TRIPOS>ATOM
     1 O6      10.4979   1.0692   9.6667   O.3       1 RES2   0.0000
     2 N2       8.8374   1.7227  12.8091   N.3       1 RES2   0.0000
     3 H5       8.5557   1.0367  13.2826   H         1 RES2   0.0000
     4 C8      10.0177   1.2523  12.0444   C.3       1 RES2   0.0000
     5 H12     10.4073   0.4307  12.4614   H         1 RES2   0.0000
     6 C9       9.4783   0.9485  10.6383   C.3       1 RES2   0.0000
     7 H13      9.0887   0.0273  10.6140   H         1 RES2   0.0000
     8 C10     10.3233   0.2373   8.5165   C.3       1 RES2   0.0000
     9 H14     10.6283  -0.6767   8.7444   H         1 RES2   0.0000
    10 H15     10.9128   0.5746   7.7961   H         1 RES2   0.0000
    11 C11      8.8952   0.1444   7.9653   C.3       1 RES2   0.0000
    12 H16      8.4123  -0.5452   8.4871   H         1 RES2   0.0000
    13 H17      8.9518  -0.1816   7.0321   H         1 RES2   0.0000
    14 C12      8.0368   1.4220   7.9677   C.3       1 RES2   0.0000
    15 H18      8.6218   2.2035   7.7516   H         1 RES2   0.0000
    16 C13      7.3856   1.6572   9.3374   C.3       1 RES2   0.0000
    17 H19      6.7391   2.4020   9.2591   H         1 RES2   0.0000
    18 H20      6.8800   0.8454   9.5927   H         1 RES2   0.0000
    19 C14      8.3748   1.9842  10.4460   C.3       1 RES2   0.0000
    20 H21      8.8080   2.8580  10.2249   H         1 RES2   0.0000
    21 C15      7.7631   2.1008  11.8443   C.3       1 RES2   0.0000
    22 H22      7.4592   3.0277  12.0119   H         1 RES2   0.0000
    23 H23      6.9874   1.4922  11.9340   H         1 RES2   0.0000
    24 C19      6.9320   1.3204   6.9020   C.3       1 RES2   0.0000
    25 H31      6.2439   2.0018   7.1051   H         1 RES2   0.0000
    26 H32      6.5029   0.4327   6.9860   H         1 RES2   0.0000
    27 C20      7.3717   1.5035   5.4379   C.3       1 RES2   0.0000
    28 H33      8.1099   0.8578   5.2451   H         1 RES2   0.0000
    29 C21      6.2080   1.2054   4.4942   C.3       1 RES2   0.0000
    30 H34      5.8756   0.2997   4.6621   H         1 RES2   0.0000
    31 H35      6.5155   1.2735   3.5661   H         1 RES2   0.0000
    32 H36      5.4897   1.8522   4.6478   H         1 RES2   0.0000
    33 C22      7.8913   2.9168   5.2022   C.3       1 RES2   0.0000
    34 H37      8.0557   3.0494   4.2443   H         1 RES2   0.0000
    35 H38      8.7267   3.0437   5.6962   H         1 RES2   0.0000
    36 H39      7.2271   3.5657   5.5135   H         1 RES2   0.0000
@<TRIPOS>BOND
     1     1     6    1
     2     2     3    1
     3     4     2    1
     4     5     4    1
     5     6     4    1
     6     7     6    1
     7     8     1    1
     8     9     8    1
     9    10     8    1
    10    11     8    1
    11    12    11    1
    12    13    11    1
    13    14    11    1
    14    15    14    1
    15    16    14    1
    16    17    16    1
    17    18    16    1
    18    19     6    1
    19    20    19    1
    20    21     2    1
    21    22    21    1
    22    23    21    1
    23    24    14    1
    24    25    24    1
    25    26    24    1
    26    27    24    1
    27    28    27    1
    28    29    27    1
    29    30    29    1
    30    31    29    1
    31    32    29    1
    32    33    27    1
    33    34    33    1
    34    35    33    1
    35    36    33    1
    36    16    19    1
    37    19    21    1
@<TRIPOS>SUBSTRUCTURE
     1 RES2        1 GROUP             0 ****  ****    0  
