@<TRIPOS>MOLECULE
01
    22    22     1     0     0
SMALL
NO_CHARGES
****
Generated from the CSD

@<TRIPOS>ATOM
     1 S1      16.4054   2.9870  15.9114   S.3       1 RES1   0.0000
     2 O1      14.8007   4.1444  14.0468   O.3       1 RES1   0.0000
     3 O2      14.8723   5.0155  17.6278   O.3       1 RES1   0.0000
     4 H1      15.3381   4.4719  17.7430   H         1 RES1   0.0000
     5 O3      12.2535   3.9107  17.3627   O.3       1 RES1   0.0000
     6 H2      12.2701   3.2495  17.9590   H         1 RES1   0.0000
     7 O4      11.9932   4.6437  14.6004   O.3       1 RES1   0.0000
     8 H3      11.1628   4.4513  14.6106   H         1 RES1   0.0000
     9 C1      15.3737   4.3847  15.3105   C.3       1 RES1   0.0000
    10 H6      15.9733   5.1811  15.2205   H         1 RES1   0.0000
    11 C2      14.3070   4.7303  16.3518   C.3       1 RES1   0.0000
    12 H7      13.8449   5.5612  16.0402   H         1 RES1   0.0000
    13 C3      13.2596   3.6239  16.4001   C.3       1 RES1   0.0000
    14 H8      13.7105   2.7708  16.6597   H         1 RES1   0.0000
    15 C4      12.6616   3.4501  15.0023   C.3       1 RES1   0.0000
    16 H9      12.0058   2.6945  15.0156   H         1 RES1   0.0000
    17 C5      13.7910   3.1210  14.0260   C.3       1 RES1   0.0000
    18 H10     14.2024   2.2452  14.2786   H         1 RES1   0.0000
    19 C16     17.6418   3.0117  14.6031   C.3       1 RES1   0.0000
    20 H24     17.2181   2.7822  13.7496   H         1 RES1   0.0000
    21 H25     18.3444   2.3592  14.8060   H         1 RES1   0.0000
    22 H26     18.0345   3.9071  14.5423   H         1 RES1   0.0000
@<TRIPOS>BOND
     1     1     9    1
     2     2     9    1
     3     3     4    1
     4     5     6    1
     5     7     8    1
     6     9    10    1
     7    11     3    1
     8    12    11    1
     9    13     5    1
    10    14    13    1
    11    15     7    1
    12    16    15    1
    13    17     2    1
    14    18    17    1
    15    19     1    1
    16    20    19    1
    17    21    19    1
    18    22    19    1
    19     9    11    1
    20    11    13    1
    21    13    15    1
    22    15    17    1
@<TRIPOS>SUBSTRUCTURE
     1 RES1        1 GROUP             0 ****  ****    0  
