@<TRIPOS>MOLECULE
02
    38    39     1     0     0
SMALL
NO_CHARGES
****
Generated from the CSD

@<TRIPOS>ATOM
     1 O5       9.8522   2.9955   6.0161   O.3       1 RES2   0.0000
     2 O6      10.1576   2.3039   3.4113   O.2       1 RES2   0.0000
     3 O7      11.4617   0.5268   3.1820   O.3       1 RES2   0.0000
     4 C9       9.6321   1.1499   7.5133   C.3       1 RES2   0.0000
     5 C10      9.3784   1.6302   6.0630   C.3       1 RES2   0.0000
     6 C11     10.3462   0.7282   5.2395   C.3       1 RES2   0.0000
     7 C12     11.6194   0.7576   6.1243   C.3       1 RES2   0.0000
     8 C13     11.1327   0.8299   7.5615   C.3       1 RES2   0.0000
     9 C14      7.8980   1.6480   5.6669   C.3       1 RES2   0.0000
    10 C15      7.1643   0.3225   5.5939   C.3       1 RES2   0.0000
    11 C16      7.4871  -0.4601   4.3534   C.2       1 RES2   0.0000
    12 C17      8.7103  -0.9191   4.1319   C.2       1 RES2   0.0000
    13 C18      9.8540  -0.7267   5.0779   C.3       1 RES2   0.0000
    14 C19      6.3724  -0.6426   3.3410   C.3       1 RES2   0.0000
    15 C20     10.6326   1.2896   3.8531   C.2       1 RES2   0.0000
    16 C21     11.7748   0.9209   1.8099   C.3       1 RES2   0.0000
    17 C22     11.0377   0.1328   0.8808   C.3       1 RES2   0.0000
    18 H8       9.1757   0.3224   7.6084   H         1 RES2   0.0000
    19 H9      12.1326  -0.0306   5.9887   H         1 RES2   0.0000
    20 H10     12.1482   1.5189   5.9158   H         1 RES2   0.0000
    21 H11     11.5970   1.5140   8.0293   H         1 RES2   0.0000
    22 H12     11.2750  -0.0031   7.9967   H         1 RES2   0.0000
    23 H13      7.4424   2.1886   6.3015   H         1 RES2   0.0000
    24 H14      7.8403   2.0504   4.8082   H         1 RES2   0.0000
    25 H15      7.4034  -0.1983   6.3523   H         1 RES2   0.0000
    26 H16      6.2304   0.4936   5.6096   H         1 RES2   0.0000
    27 H17      8.8699  -1.3965   3.3266   H         1 RES2   0.0000
    28 H18     10.5832  -1.2492   4.7652   H         1 RES2   0.0000
    29 H19      9.5830  -1.0407   5.9327   H         1 RES2   0.0000
    30 H20     11.5510   1.8358   1.6900   H         1 RES2   0.0000
    31 H21     12.7041   0.7985   1.6549   H         1 RES2   0.0000
    32 H22      5.5782  -0.2347   3.6667   H         1 RES2   0.0000
    33 H23      6.6220  -0.2359   2.5188   H         1 RES2   0.0000
    34 H24      6.2186  -1.5694   3.2015   H         1 RES2   0.0000
    35 H25     10.1080   0.2713   1.0151   H         1 RES2   0.0000
    36 H26     11.2711   0.3870  -0.0052   H         1 RES2   0.0000
    37 H27     11.2445  -0.7853   1.0098   H         1 RES2   0.0000
    38 H28     10.8204   3.1286   5.8636   H         1 RES2   0.0000
@<TRIPOS>BOND
     1     1     5    1
     2     2    15    2
     3     3    15    1
     4     5     4    1
     5     6     5    1
     6     7     6    1
     7     8     4    1
     8     9     5    1
     9    10     9    1
    10    11    10    1
    11    12    11    2
    12    13     6    1
    13    14    11    1
    14    15     6    1
    15    16     3    1
    16    17    16    1
    17    18     4    1
    18    19     7    1
    19    20     7    1
    20    21     8    1
    21    22     8    1
    22    23     9    1
    23    24     9    1
    24    25    10    1
    25    26    10    1
    26    27    12    1
    27    28    13    1
    28    29    13    1
    29    30    16    1
    30    31    16    1
    31    32    14    1
    32    33    14    1
    33    34    14    1
    34    35    17    1
    35    36    17    1
    36    37    17    1
    37    38     1    1
    38     7     8    1
    39    12    13    1
@<TRIPOS>SUBSTRUCTURE
     1 RES2        1 GROUP             0 ****  ****    0  
