@<TRIPOS>MOLECULE
01
    15    15     1     0     0
SMALL
NO_CHARGES
****
Generated from the CSD

@<TRIPOS>ATOM
     1 O1       2.0964  -0.3083  11.8941   O.2       1 RES1   0.0000
     2 O2       2.6150   0.7655  13.6740   O.2       1 RES1   0.0000
     3 O3       5.7184   4.3411  13.3339   O.2       1 RES1   0.0000
     4 O4       7.2069   4.4162  11.7807   O.2       1 RES1   0.0000
     5 N1       2.7958   0.4672  12.5000   N.pl3     1 RES1   0.0000
     6 N2       6.2173   3.8985  12.3084   N.pl3     1 RES1   0.0000
     7 C1       3.9301   1.0776  11.8120   C.ar      1 RES1   0.0000
     8 C2       4.5229   2.1756  12.3384   C.ar      1 RES1   0.0000
     9 C3       5.6503   2.7053  11.7103   C.ar      1 RES1   0.0000
    10 C4       6.2180   2.0900  10.5845   C.ar      1 RES1   0.0000
    11 C5       5.5270   0.9855  10.0477   C.ar      1 RES1   0.0000
    12 C6       4.4048   0.4817  10.6432   C.ar      1 RES1   0.0000
    13 H1       4.1752   2.5803  13.1241   H         1 RES1   0.0000
    14 H2       5.8496   0.5805   9.2502   H         1 RES1   0.0000
    15 H3       3.9540  -0.2652  10.2653   H         1 RES1   0.0000
@<TRIPOS>BOND
     1     1     5    2
     2     2     5    2
     3     3     6    2
     4     4     6    2
     5     5     7    1
     6     6     9    1
     7     7     8   ar
     8     8     9   ar
     9     9    10   ar
    10    11    10   ar
    11    12     7   ar
    12    13     8    1
    13    14    11    1
    14    15    12    1
    15    11    12   ar
@<TRIPOS>SUBSTRUCTURE
     1 RES1        1 GROUP             0 ****  ****    0  
