@<TRIPOS>MOLECULE
02
    13    13     1     0     0
SMALL
NO_CHARGES
****
Generated from the CSD

@<TRIPOS>ATOM
     1 N3       8.7329  10.7219   4.8597   N.2       1 RES2   0.0000
     2 C17      8.8068  11.6357   6.0146   C.3       1 RES2   0.0000
     3 H9       8.9648  11.1456   6.8370   H         1 RES2   0.0000
     4 H10      7.9894  12.1495   6.1051   H         1 RES2   0.0000
     5 C18      9.9764  12.5312   5.6855   C.3       1 RES2   0.0000
     6 H11      9.8763  13.4012   6.1028   H         1 RES2   0.0000
     7 H12     10.8116  12.1346   5.9781   H         1 RES2   0.0000
     8 C19      9.9287  12.6437   4.1942   C.3       1 RES2   0.0000
     9 H13     10.8004  12.8763   3.8380   H         1 RES2   0.0000
    10 H14      9.2865  13.3156   3.9190   H         1 RES2   0.0000
    11 C20      9.5022  11.2627   3.7236   C.3       1 RES2   0.0000
    12 H15      8.9514  11.3213   2.9274   H         1 RES2   0.0000
    13 H16     10.2749  10.7069   3.5314   H         1 RES2   0.0000
@<TRIPOS>BOND
     1     2     1    1
     2     3     2    1
     3     4     2    1
     4     5     2    1
     5     6     5    1
     6     7     5    1
     7     8     5    1
     8     9     8    1
     9    10     8    1
    10    11     1    1
    11    12    11    1
    12    13    11    1
    13     8    11    1
@<TRIPOS>SUBSTRUCTURE
     1 RES2        1 GROUP             0 ****  ****    0  
