@<TRIPOS>MOLECULE
BAVMUK
    50    52     1     0     0
SMALL
NO_CHARGES
****
Generated from the CSD

@<TRIPOS>ATOM
     1 F1       7.2470   7.5616   1.2849   F         1 RES1   0.0000
     2 F2       9.0609   6.7302   1.7743   F         1 RES1   0.0000
     3 F3       7.3076   5.6515   2.1044   F         1 RES1   0.0000
     4 O1       6.6503  10.0862   6.7023   O.3       1 RES1   0.0000
     5 O2       7.1583   6.6907   4.4394   O.2       1 RES1   0.0000
     6 O3       3.0079   6.1606  -0.3867   O.2       1 RES1   0.0000
     7 N1       5.0601   9.7088   5.0798   N.ar      1 RES1   0.0000
     8 N2       4.8480  11.3864   6.7566   N.ar      1 RES1   0.0000
     9 N3       8.7329  10.7219   4.8597   N.pl3     1 RES1   0.0000
    10 C1       7.8226   6.8205   2.1977   C.3       1 RES1   0.0000
    11 C2       7.7106   7.4111   3.6115   C.2       1 RES1   0.0000
    12 C3       8.2489   8.6983   3.7320   C.2       1 RES1   0.0000
    13 H1       8.7024   9.0344   2.9927   H         1 RES1   0.0000
    14 C4       8.1711   9.5229   4.8482   C.2       1 RES1   0.0000
    15 C5       7.4557   9.0616   6.0869   C.3       1 RES1   0.0000
    16 H2       6.8869   8.3099   5.8595   H         1 RES1   0.0000
    17 H3       8.1122   8.7506   6.7305   H         1 RES1   0.0000
    18 C6       5.4691  10.3883   6.1414   C.ar      1 RES1   0.0000
    19 C7       3.8564  10.0314   4.5830   C.ar      1 RES1   0.0000
    20 C8       3.4227   9.2718   3.3841   C.ar      1 RES1   0.0000
    21 C9       2.2313   9.5344   2.7427   C.ar      1 RES1   0.0000
    22 H4       1.6694  10.1988   3.0699   H         1 RES1   0.0000
    23 C10      1.8619   8.8233   1.6223   C.ar      1 RES1   0.0000
    24 H5       1.0563   9.0025   1.1948   H         1 RES1   0.0000
    25 C11      2.6912   7.8574   1.1507   C.ar      1 RES1   0.0000
    26 N4       2.3190   7.0967  -0.0545   N.pl3     1 RES1   0.0000
    27 O4       1.3483   7.4374  -0.6739   O.2       1 RES1   0.0000
    28 C12      3.6571  11.6815   6.2378   C.ar      1 RES1   0.0000
    29 C13      2.9551  12.8074   6.9222   C.3       1 RES1   0.0000
    30 F4       2.7457  12.5660   8.1620   F         1 RES1   0.0000
    31 F5       1.7727  13.0538   6.4412   F         1 RES1   0.0000
    32 F6       3.5914  13.9092   6.8803   F         1 RES1   0.0000
    33 C14      3.1004  11.0302   5.1699   C.ar      1 RES1   0.0000
    34 H6       2.2539  11.2492   4.8533   H         1 RES1   0.0000
    35 C15      3.8701   7.5515   1.7701   C.ar      1 RES1   0.0000
    36 H7       4.4175   6.8736   1.4449   H         1 RES1   0.0000
    37 C16      4.2281   8.2726   2.8863   C.ar      1 RES1   0.0000
    38 H8       5.0315   8.0797   3.3137   H         1 RES1   0.0000
    39 C17      8.8068  11.6357   6.0146   C.3       1 RES1   0.0000
    40 H9       8.9648  11.1456   6.8370   H         1 RES1   0.0000
    41 H10      7.9894  12.1495   6.1051   H         1 RES1   0.0000
    42 C18      9.9764  12.5312   5.6855   C.3       1 RES1   0.0000
    43 H11      9.8763  13.4012   6.1028   H         1 RES1   0.0000
    44 H12     10.8116  12.1346   5.9781   H         1 RES1   0.0000
    45 C19      9.9287  12.6437   4.1942   C.3       1 RES1   0.0000
    46 H13     10.8004  12.8763   3.8380   H         1 RES1   0.0000
    47 H14      9.2865  13.3156   3.9190   H         1 RES1   0.0000
    48 C20      9.5022  11.2627   3.7236   C.3       1 RES1   0.0000
    49 H15      8.9514  11.3213   2.9274   H         1 RES1   0.0000
    50 H16     10.2749  10.7069   3.5314   H         1 RES1   0.0000
@<TRIPOS>BOND
     1     1    10    1
     2     2    10    1
     3     3    10    1
     4     4    15    1
     5     5    11    2
     6     6    26    2
     7     7    18   ar
     8     8    18   ar
     9     9    14    1
    10    10    11    1
    11    11    12    1
    12    12    13    1
    13    14    12    2
    14    15    14    1
    15    16    15    1
    16    17    15    1
    17    18     4    1
    18    19     7   ar
    19    20    19    1
    20    21    20   ar
    21    22    21    1
    22    23    21   ar
    23    24    23    1
    24    25    23   ar
    25    26    25    1
    26    27    26    2
    27    28     8   ar
    28    29    28    1
    29    30    29    1
    30    31    29    1
    31    32    29    1
    32    33    19   ar
    33    34    33    1
    34    35    25   ar
    35    36    35    1
    36    37    20   ar
    37    38    37    1
    38    39     9    1
    39    40    39    1
    40    41    39    1
    41    42    39    1
    42    43    42    1
    43    44    42    1
    44    45    42    1
    45    46    45    1
    46    47    45    1
    47    48     9    1
    48    49    48    1
    49    50    48    1
    50    28    33   ar
    51    35    37   ar
    52    45    48    1
@<TRIPOS>SUBSTRUCTURE
     1 RES1        1 GROUP             0 ****  ****    0  
@<TRIPOS>CRYSIN
   12.1755   16.5385   11.6394   90.0000  115.7880   90.0000    14     1
