@<TRIPOS>MOLECULE
01
    24    25     1     0     0
SMALL
NO_CHARGES
****
Generated from the CSD

@<TRIPOS>ATOM
     1 O3       3.0079   6.1606  -0.3867   O.2       1 RES1   0.0000
     2 N1       5.0601   9.7088   5.0798   N.ar      1 RES1   0.0000
     3 N2       4.8480  11.3864   6.7566   N.ar      1 RES1   0.0000
     4 C6       5.4691  10.3883   6.1414   C.ar      1 RES1   0.0000
     5 C7       3.8564  10.0314   4.5830   C.ar      1 RES1   0.0000
     6 C8       3.4227   9.2718   3.3841   C.ar      1 RES1   0.0000
     7 C9       2.2313   9.5344   2.7427   C.ar      1 RES1   0.0000
     8 H4       1.6694  10.1988   3.0699   H         1 RES1   0.0000
     9 C10      1.8619   8.8233   1.6223   C.ar      1 RES1   0.0000
    10 H5       1.0563   9.0025   1.1948   H         1 RES1   0.0000
    11 C11      2.6912   7.8574   1.1507   C.ar      1 RES1   0.0000
    12 N4       2.3190   7.0967  -0.0545   N.pl3     1 RES1   0.0000
    13 O4       1.3483   7.4374  -0.6739   O.2       1 RES1   0.0000
    14 C12      3.6571  11.6815   6.2378   C.ar      1 RES1   0.0000
    15 C13      2.9551  12.8074   6.9222   C.3       1 RES1   0.0000
    16 F4       2.7457  12.5660   8.1620   F         1 RES1   0.0000
    17 F5       1.7727  13.0538   6.4412   F         1 RES1   0.0000
    18 F6       3.5914  13.9092   6.8803   F         1 RES1   0.0000
    19 C14      3.1004  11.0302   5.1699   C.ar      1 RES1   0.0000
    20 H6       2.2539  11.2492   4.8533   H         1 RES1   0.0000
    21 C15      3.8701   7.5515   1.7701   C.ar      1 RES1   0.0000
    22 H7       4.4175   6.8736   1.4449   H         1 RES1   0.0000
    23 C16      4.2281   8.2726   2.8863   C.ar      1 RES1   0.0000
    24 H8       5.0315   8.0797   3.3137   H         1 RES1   0.0000
@<TRIPOS>BOND
     1     1    12    2
     2     2     4   ar
     3     3     4   ar
     4     5     2   ar
     5     6     5    1
     6     7     6   ar
     7     8     7    1
     8     9     7   ar
     9    10     9    1
    10    11     9   ar
    11    12    11    1
    12    13    12    2
    13    14     3   ar
    14    15    14    1
    15    16    15    1
    16    17    15    1
    17    18    15    1
    18    19     5   ar
    19    20    19    1
    20    21    11   ar
    21    22    21    1
    22    23     6   ar
    23    24    23    1
    24    14    19   ar
    25    21    23   ar
@<TRIPOS>SUBSTRUCTURE
     1 RES1        1 GROUP             0 ****  ****    0  
