@<TRIPOS>MOLECULE
01
    39    41     1     0     0
SMALL
NO_CHARGES
****
Generated from the CSD

@<TRIPOS>ATOM
     1 O1       8.5022   0.0816   2.8757   O.3       1 RES1   0.0000
     2 O2       7.4676  -1.0571   4.5066   O.2       1 RES1   0.0000
     3 N1       7.0169   1.1930   4.0917   N.am      1 RES1   0.0000
     4 C1       7.6327  -0.0335   3.9113   C.2       1 RES1   0.0000
     5 C2       7.3957   2.1414   3.0245   C.3       1 RES1   0.0000
     6 C3       8.7572   1.5003   2.6099   C.3       1 RES1   0.0000
     7 C4       6.3193   2.2805   1.9105   C.3       1 RES1   0.0000
     8 C5       5.5912   3.5835   2.0355   C.3       1 RES1   0.0000
     9 C6       5.3458   1.1993   1.8287   C.3       1 RES1   0.0000
    10 C24      9.9341   1.9182   3.4932   C.ar      1 RES1   0.0000
    11 C25     10.0863   3.1997   3.9874   C.ar      1 RES1   0.0000
    12 C26     11.2267   3.5392   4.7347   C.ar      1 RES1   0.0000
    13 C27     12.1984   2.6181   4.9562   C.ar      1 RES1   0.0000
    14 C28     12.0632   1.3466   4.4478   C.ar      1 RES1   0.0000
    15 C29     10.9358   0.9939   3.7324   C.ar      1 RES1   0.0000
    16 C30      9.1367   1.6286   1.1349   C.ar      1 RES1   0.0000
    17 C31      9.5949   2.8602   0.6642   C.ar      1 RES1   0.0000
    18 C32      9.9367   3.0025  -0.6736   C.ar      1 RES1   0.0000
    19 C33      9.8165   1.9466  -1.5342   C.ar      1 RES1   0.0000
    20 C34      9.4130   0.7290  -1.0589   C.ar      1 RES1   0.0000
    21 C35      9.0598   0.5614   0.2647   C.ar      1 RES1   0.0000
    22 H2       7.5520   3.0328   3.3450   H         1 RES1   0.0000
    23 H3       6.8029   2.2798   1.0821   H         1 RES1   0.0000
    24 H4       4.9368   3.6556   1.3371   H         1 RES1   0.0000
    25 H5       6.2078   4.3169   1.9735   H         1 RES1   0.0000
    26 H6       5.1521   3.6075   2.8878   H         1 RES1   0.0000
    27 H7       4.7332   1.3656   1.1074   H         1 RES1   0.0000
    28 H8       4.8625   1.1500   2.6558   H         1 RES1   0.0000
    29 H9       5.8017   0.3686   1.6748   H         1 RES1   0.0000
    30 H31      9.4141   3.8604   3.8045   H         1 RES1   0.0000
    31 H32     11.2975   4.4206   5.1094   H         1 RES1   0.0000
    32 H33     12.9871   2.8558   5.4495   H         1 RES1   0.0000
    33 H34     12.7516   0.6929   4.5902   H         1 RES1   0.0000
    34 H35     10.8454   0.0999   3.3933   H         1 RES1   0.0000
    35 H36      9.6553   3.6081   1.2636   H         1 RES1   0.0000
    36 H37     10.2604   3.8484  -0.9925   H         1 RES1   0.0000
    37 H38     10.0309   2.0636  -2.4628   H         1 RES1   0.0000
    38 H39      9.3527  -0.0183  -1.6587   H         1 RES1   0.0000
    39 H40      8.7668  -0.2953   0.5835   H         1 RES1   0.0000
@<TRIPOS>BOND
     1     1     4    1
     2     2     4    2
     3     3     4   am
     4     5     3    1
     5     6     1    1
     6     7     5    1
     7     8     7    1
     8     9     7    1
     9    10     6    1
    10    11    10   ar
    11    12    11   ar
    12    13    12   ar
    13    14    13   ar
    14    15    10   ar
    15    16     6    1
    16    17    16   ar
    17    18    17   ar
    18    19    18   ar
    19    20    19   ar
    20    21    16   ar
    21    22     5    1
    22    23     7    1
    23    24     8    1
    24    25     8    1
    25    26     8    1
    26    27     9    1
    27    28     9    1
    28    29     9    1
    29    30    11    1
    30    31    12    1
    31    32    13    1
    32    33    14    1
    33    34    15    1
    34    35    17    1
    35    36    18    1
    36    37    19    1
    37    38    20    1
    38    39    21    1
    39     5     6    1
    40    14    15   ar
    41    20    21   ar
@<TRIPOS>SUBSTRUCTURE
     1 RES1        1 GROUP             0 ****  ****    0  
