@<TRIPOS>MOLECULE
BAWWOM
    84    87     1     0     0
SMALL
NO_CHARGES
****
Generated from the CSD

@<TRIPOS>ATOM
     1 O1       8.5022   0.0816   2.8757   O.3       1 RES1   0.0000
     2 O2       7.4676  -1.0571   4.5066   O.2       1 RES1   0.0000
     3 O3       5.6942   2.6743   5.1159   O.2       1 RES1   0.0000
     4 O4       2.0885  -0.3326   6.7964   O.2       1 RES1   0.0000
     5 O5       2.6701  -2.1420   7.9869   O.3       1 RES1   0.0000
     6 O6       6.0235   3.3407   8.2801   O.2       1 RES1   0.0000
     7 O7       7.3999   1.5616   8.0747   O.3       1 RES1   0.0000
     8 N1       7.0169   1.1930   4.0917   N.am      1 RES1   0.0000
     9 N2       4.0881  -1.3226   6.5106   N.am      1 RES1   0.0000
    10 C1       7.6327  -0.0335   3.9113   C.2       1 RES1   0.0000
    11 C2       7.3957   2.1414   3.0245   C.3       1 RES1   0.0000
    12 C3       8.7572   1.5003   2.6099   C.3       1 RES1   0.0000
    13 C4       6.3193   2.2805   1.9105   C.3       1 RES1   0.0000
    14 C5       5.5912   3.5835   2.0355   C.3       1 RES1   0.0000
    15 C6       5.3458   1.1993   1.8287   C.3       1 RES1   0.0000
    16 C7       6.1190   1.5509   5.1150   C.2       1 RES1   0.0000
    17 C8       5.7047   0.5241   6.1488   C.3       1 RES1   0.0000
    18 C9       4.5999  -0.3743   5.5418   C.3       1 RES1   0.0000
    19 C10      2.8870  -1.1924   7.0625   C.2       1 RES1   0.0000
    20 C11      1.3672  -2.1294   8.5992   C.3       1 RES1   0.0000
    21 C12      1.3557  -3.0701   9.7511   C.ar      1 RES1   0.0000
    22 C13      1.9775  -4.2903   9.7157   C.ar      1 RES1   0.0000
    23 C14      1.9328  -5.1255  10.8047   C.ar      1 RES1   0.0000
    24 C15      1.2384  -4.7740  11.9121   C.ar      1 RES1   0.0000
    25 C16      0.5756  -3.5753  11.9622   C.ar      1 RES1   0.0000
    26 C17      0.6523  -2.7097  10.8971   C.ar      1 RES1   0.0000
    27 C18      5.2052   1.2607   7.3869   C.3       1 RES1   0.0000
    28 C19      6.2323   2.1825   7.9757   C.2       1 RES1   0.0000
    29 C20      8.6092   2.2311   8.6291   C.3       1 RES1   0.0000
    30 C21      8.3412   2.6756  10.0604   C.3       1 RES1   0.0000
    31 C22      9.6518   1.1892   8.4200   C.3       1 RES1   0.0000
    32 C23      8.9279   3.4317   7.8296   C.3       1 RES1   0.0000
    33 C24      9.9341   1.9182   3.4932   C.ar      1 RES1   0.0000
    34 C25     10.0863   3.1997   3.9874   C.ar      1 RES1   0.0000
    35 C26     11.2267   3.5392   4.7347   C.ar      1 RES1   0.0000
    36 C27     12.1984   2.6181   4.9562   C.ar      1 RES1   0.0000
    37 C28     12.0632   1.3466   4.4478   C.ar      1 RES1   0.0000
    38 C29     10.9358   0.9939   3.7324   C.ar      1 RES1   0.0000
    39 C30      9.1367   1.6286   1.1349   C.ar      1 RES1   0.0000
    40 C31      9.5949   2.8602   0.6642   C.ar      1 RES1   0.0000
    41 C32      9.9367   3.0025  -0.6736   C.ar      1 RES1   0.0000
    42 C33      9.8165   1.9466  -1.5342   C.ar      1 RES1   0.0000
    43 C34      9.4130   0.7290  -1.0589   C.ar      1 RES1   0.0000
    44 C35      9.0598   0.5614   0.2647   C.ar      1 RES1   0.0000
    45 H1       4.6292  -2.0674   6.7820   H         1 RES1   0.0000
    46 H2       7.5520   3.0328   3.3450   H         1 RES1   0.0000
    47 H3       6.8029   2.2798   1.0821   H         1 RES1   0.0000
    48 H4       4.9368   3.6556   1.3371   H         1 RES1   0.0000
    49 H5       6.2078   4.3169   1.9735   H         1 RES1   0.0000
    50 H6       5.1521   3.6075   2.8878   H         1 RES1   0.0000
    51 H7       4.7332   1.3656   1.1074   H         1 RES1   0.0000
    52 H8       4.8625   1.1500   2.6558   H         1 RES1   0.0000
    53 H9       5.8017   0.3686   1.6748   H         1 RES1   0.0000
    54 H10      6.4535  -0.0253   6.3937   H         1 RES1   0.0000
    55 H11      4.9626  -0.8529   4.7924   H         1 RES1   0.0000
    56 H12      3.8826   0.1909   5.2450   H         1 RES1   0.0000
    57 H13      1.1834  -1.2404   8.9139   H         1 RES1   0.0000
    58 H14      0.7085  -2.3816   7.9490   H         1 RES1   0.0000
    59 H15      2.4568  -4.5489   8.9254   H         1 RES1   0.0000
    60 H16      2.3905  -5.9689  10.7703   H         1 RES1   0.0000
    61 H17      1.2075  -5.3379  12.6886   H         1 RES1   0.0000
    62 H18      0.0510  -3.3464  12.7322   H         1 RES1   0.0000
    63 H19      0.2185  -1.8537  10.9219   H         1 RES1   0.0000
    64 H20      4.4370   1.7860   7.1518   H         1 RES1   0.0000
    65 H21      4.9630   0.6259   8.0639   H         1 RES1   0.0000
    66 H22      9.1127   3.1093  10.4325   H         1 RES1   0.0000
    67 H23      8.1240   1.9024  10.5865   H         1 RES1   0.0000
    68 H24      7.5991   3.2844  10.0649   H         1 RES1   0.0000
    69 H25     10.5021   1.5085   8.7325   H         1 RES1   0.0000
    70 H26      9.6996   1.0274   7.4735   H         1 RES1   0.0000
    71 H27      9.4312   0.3730   8.8726   H         1 RES1   0.0000
    72 H28      9.7104   3.8610   8.1834   H         1 RES1   0.0000
    73 H29      8.1894   4.0444   7.8525   H         1 RES1   0.0000
    74 H30      9.0918   3.1637   6.9221   H         1 RES1   0.0000
    75 H31      9.4141   3.8604   3.8045   H         1 RES1   0.0000
    76 H32     11.2975   4.4206   5.1094   H         1 RES1   0.0000
    77 H33     12.9871   2.8558   5.4495   H         1 RES1   0.0000
    78 H34     12.7516   0.6929   4.5902   H         1 RES1   0.0000
    79 H35     10.8454   0.0999   3.3933   H         1 RES1   0.0000
    80 H36      9.6553   3.6081   1.2636   H         1 RES1   0.0000
    81 H37     10.2604   3.8484  -0.9925   H         1 RES1   0.0000
    82 H38     10.0309   2.0636  -2.4628   H         1 RES1   0.0000
    83 H39      9.3527  -0.0183  -1.6587   H         1 RES1   0.0000
    84 H40      8.7668  -0.2953   0.5835   H         1 RES1   0.0000
@<TRIPOS>BOND
     1     1    10    1
     2     2    10    2
     3     3    16    2
     4     4    19    2
     5     5    19    1
     6     6    28    2
     7     7    28    1
     8     8    10   am
     9     9    18    1
    10    11     8    1
    11    12     1    1
    12    13    11    1
    13    14    13    1
    14    15    13    1
    15    16     8   am
    16    17    16    1
    17    18    17    1
    18    19     9   am
    19    20     5    1
    20    21    20    1
    21    22    21   ar
    22    23    22   ar
    23    24    23   ar
    24    25    24   ar
    25    26    21   ar
    26    27    17    1
    27    28    27    1
    28    29     7    1
    29    30    29    1
    30    31    29    1
    31    32    29    1
    32    33    12    1
    33    34    33   ar
    34    35    34   ar
    35    36    35   ar
    36    37    36   ar
    37    38    33   ar
    38    39    12    1
    39    40    39   ar
    40    41    40   ar
    41    42    41   ar
    42    43    42   ar
    43    44    39   ar
    44    45     9    1
    45    46    11    1
    46    47    13    1
    47    48    14    1
    48    49    14    1
    49    50    14    1
    50    51    15    1
    51    52    15    1
    52    53    15    1
    53    54    17    1
    54    55    18    1
    55    56    18    1
    56    57    20    1
    57    58    20    1
    58    59    22    1
    59    60    23    1
    60    61    24    1
    61    62    25    1
    62    63    26    1
    63    64    27    1
    64    65    27    1
    65    66    30    1
    66    67    30    1
    67    68    30    1
    68    69    31    1
    69    70    31    1
    70    71    31    1
    71    72    32    1
    72    73    32    1
    73    74    32    1
    74    75    34    1
    75    76    35    1
    76    77    36    1
    77    78    37    1
    78    79    38    1
    79    80    40    1
    80    81    41    1
    81    82    42    1
    82    83    43    1
    83    84    44    1
    84    11    12    1
    85    25    26   ar
    86    37    38   ar
    87    43    44   ar
@<TRIPOS>SUBSTRUCTURE
     1 RES1        1 GROUP             0 ****  ****    0  
@<TRIPOS>CRYSIN
   11.3834    6.3223   23.5914   90.0000  103.1360   90.0000     4     1
