@<TRIPOS>MOLECULE
02
    14    14     1     0     0
SMALL
NO_CHARGES
****
Generated from the CSD

@<TRIPOS>ATOM
     1 C11      1.3672  -2.1294   8.5992   C.3       1 RES2   0.0000
     2 C12      1.3557  -3.0701   9.7511   C.ar      1 RES2   0.0000
     3 C13      1.9775  -4.2903   9.7157   C.ar      1 RES2   0.0000
     4 C14      1.9328  -5.1255  10.8047   C.ar      1 RES2   0.0000
     5 C15      1.2384  -4.7740  11.9121   C.ar      1 RES2   0.0000
     6 C16      0.5756  -3.5753  11.9622   C.ar      1 RES2   0.0000
     7 C17      0.6523  -2.7097  10.8971   C.ar      1 RES2   0.0000
     8 H13      1.1834  -1.2404   8.9139   H         1 RES2   0.0000
     9 H14      0.7085  -2.3816   7.9490   H         1 RES2   0.0000
    10 H15      2.4568  -4.5489   8.9254   H         1 RES2   0.0000
    11 H16      2.3905  -5.9689  10.7703   H         1 RES2   0.0000
    12 H17      1.2075  -5.3379  12.6886   H         1 RES2   0.0000
    13 H18      0.0510  -3.3464  12.7322   H         1 RES2   0.0000
    14 H19      0.2185  -1.8537  10.9219   H         1 RES2   0.0000
@<TRIPOS>BOND
     1     2     1    1
     2     3     2   ar
     3     4     3   ar
     4     5     4   ar
     5     6     5   ar
     6     7     2   ar
     7     8     1    1
     8     9     1    1
     9    10     3    1
    10    11     4    1
    11    12     5    1
    12    13     6    1
    13    14     7    1
    14     6     7   ar
@<TRIPOS>SUBSTRUCTURE
     1 RES2        1 GROUP             0 ****  ****    0  
