@<TRIPOS>MOLECULE
02
    26    25     1     0     0
SMALL
NO_CHARGES
****
Generated from the CSD

@<TRIPOS>ATOM
     1 C8      -0.5629   6.1889  18.0423   C.3       1 RES2   0.0000
     2 C9      -1.1970   5.3493  16.9149   C.2       1 RES2   0.0000
     3 C10     -1.5133   7.2353  18.6061   C.3       1 RES2   0.0000
     4 C11     -1.0189   7.9842  19.7958   C.3       1 RES2   0.0000
     5 C13     -0.6954   7.0036  20.9589   C.3       1 RES2   0.0000
     6 C14     -2.1033   9.0113  20.2409   C.3       1 RES2   0.0000
     7 C15     -1.0260   4.3948  14.7460   C.3       1 RES2   0.0000
     8 C16     -0.4346   3.0572  14.5353   C.2       1 RES2   0.0000
     9 H10     -0.4987   5.5704  18.7218   H         1 RES2   0.0000
    10 H11     -1.5817   7.9426  17.9800   H         1 RES2   0.0000
    11 H13     -2.3085   6.8993  18.8108   H         1 RES2   0.0000
    12 H14      0.0855   8.6009  19.7306   H         1 RES2   0.0000
    13 H15      0.0855   6.3590  20.5910   H         1 RES2   0.0000
    14 H16     -0.3135   7.8308  21.0657   H         1 RES2   0.0000
    15 H17     -1.2255   7.3030  21.9261   H         1 RES2   0.0000
    16 H18     -1.9380   9.8863  19.4932   H         1 RES2   0.0000
    17 H19     -1.9237   9.5448  21.1547   H         1 RES2   0.0000
    18 H20     -2.8927   8.6071  20.3536   H         1 RES2   0.0000
    19 H21      0.8408   5.5021  15.7548   H         1 RES2   0.0000
    20 H22     -2.2657   4.2290  14.6273   H         1 RES2   0.0000
    21 H24     -0.4702   4.9432  13.8262   H         1 RES2   0.0000
    22 H25     -0.1282   1.8071  13.2032   H         1 RES2   0.0000
    23 N4      -0.5101   5.1059  15.8527   N.am      1 RES2   0.0000
    24 O5      -2.3997   4.9873  17.0692   O.2       1 RES2   0.0000
    25 O6       0.1553   2.4343  15.4047   O.2       1 RES2   0.0000
    26 O7      -0.6256   2.5536  13.3574   O.3       1 RES2   0.0000
@<TRIPOS>BOND
     1     1     2    1
     2     2    23   am
     3     3     1    1
     4     4     3    1
     5     5     4    1
     6     6     4    1
     7     7     8    1
     8     8    25    2
     9     9     1    1
    10    10     3    1
    11    11     3    1
    12    12     4    1
    13    13     5    1
    14    14     5    1
    15    15     5    1
    16    16     6    1
    17    17     6    1
    18    18     6    1
    19    19    23    1
    20    20     7    1
    21    21     7    1
    22    22    26    1
    23    23     7    1
    24    24     2    2
    25    26     8    1
@<TRIPOS>SUBSTRUCTURE
     1 RES2        1 GROUP             0 ****  ****    0  
