@<TRIPOS>MOLECULE
BCGPLG10
    66    67     1     0     0
SMALL
NO_CHARGES
****
Generated from the CSD

@<TRIPOS>ATOM
     1 Br1      2.8301   1.3022   6.0853   Br        1 RES1   0.0000
     2 C1       2.0648   2.3170   7.4828   C.ar      1 RES1   0.0000
     3 C2       2.7731   6.7180  15.1821   C.2       1 RES1   0.0000
     4 C3       3.0994   6.9130  17.6210   C.3       1 RES1   0.0000
     5 C4       3.5198   8.1407  18.4666   C.3       1 RES1   0.0000
     6 C5       4.0299   9.1281  17.5913   C.3       1 RES1   0.0000
     7 C6       3.5240   8.8648  16.2147   C.3       1 RES1   0.0000
     8 C7       1.8696   6.2243  18.0957   C.2       1 RES1   0.0000
     9 C8      -0.5629   6.1889  18.0423   C.3       1 RES1   0.0000
    10 C9      -1.1970   5.3493  16.9149   C.2       1 RES1   0.0000
    11 C10     -1.5133   7.2353  18.6061   C.3       1 RES1   0.0000
    12 C11     -1.0189   7.9842  19.7958   C.3       1 RES1   0.0000
    13 C12      2.5793   3.5105   7.7290   C.ar      1 RES1   0.0000
    14 C13     -0.6954   7.0036  20.9589   C.3       1 RES1   0.0000
    15 C14     -2.1033   9.0113  20.2409   C.3       1 RES1   0.0000
    16 C15     -1.0260   4.3948  14.7460   C.3       1 RES1   0.0000
    17 C16     -0.4346   3.0572  14.5353   C.2       1 RES1   0.0000
    18 C17      2.0021   4.2892   8.8090   C.ar      1 RES1   0.0000
    19 C18      1.0431   3.7577   9.5537   C.ar      1 RES1   0.0000
    20 C19      0.5643   2.5386   9.3045   C.ar      1 RES1   0.0000
    21 C20      1.0388   1.7655   8.2453   C.ar      1 RES1   0.0000
    22 C21      0.4446   4.5911  10.7435   C.3       1 RES1   0.0000
    23 C22      1.5561   6.0162  12.3190   C.2       1 RES1   0.0000
    24 C23      2.8685   7.3514  13.8203   C.3       1 RES1   0.0000
    25 H1       3.0923   4.2228   7.2395   H         1 RES1   0.0000
    26 H2       4.3320   8.7561  15.7251   H         1 RES1   0.0000
    27 H3       2.7645   9.4889  15.9921   H         1 RES1   0.0000
    28 H4       3.9900  10.0167  17.9504   H         1 RES1   0.0000
    29 H5       5.3153   8.9424  17.4163   H         1 RES1   0.0000
    30 H6       2.3798   8.4642  18.7514   H         1 RES1   0.0000
    31 H7       4.0185   7.8246  19.2855   H         1 RES1   0.0000
    32 H8       3.5768   6.2038  17.6537   H         1 RES1   0.0000
    33 H9       0.5700   7.8494  17.0009   H         1 RES1   0.0000
    34 H10     -0.4987   5.5704  18.7218   H         1 RES1   0.0000
    35 H11     -1.5817   7.9426  17.9800   H         1 RES1   0.0000
    36 H12      2.6363   5.0860   8.5746   H         1 RES1   0.0000
    37 H13     -2.3085   6.8993  18.8108   H         1 RES1   0.0000
    38 H14      0.0855   8.6009  19.7306   H         1 RES1   0.0000
    39 H15      0.0855   6.3590  20.5910   H         1 RES1   0.0000
    40 H16     -0.3135   7.8308  21.0657   H         1 RES1   0.0000
    41 H17     -1.2255   7.3030  21.9261   H         1 RES1   0.0000
    42 H18     -1.9380   9.8863  19.4932   H         1 RES1   0.0000
    43 H19     -1.9237   9.5448  21.1547   H         1 RES1   0.0000
    44 H20     -2.8927   8.6071  20.3536   H         1 RES1   0.0000
    45 H21      0.8408   5.5021  15.7548   H         1 RES1   0.0000
    46 H22     -2.2657   4.2290  14.6273   H         1 RES1   0.0000
    47 H23     -0.2422   2.0555  10.1471   H         1 RES1   0.0000
    48 H24     -0.4702   4.9432  13.8262   H         1 RES1   0.0000
    49 H25     -0.1282   1.8071  13.2032   H         1 RES1   0.0000
    50 H26      0.5130   0.8197   7.9219   H         1 RES1   0.0000
    51 H27     -0.2137   4.1297  10.7702   H         1 RES1   0.0000
    52 H28      0.1283   5.6635  10.3548   H         1 RES1   0.0000
    53 H29      3.7335   5.8250  12.5207   H         1 RES1   0.0000
    54 H30      2.2943   8.0544  13.4405   H         1 RES1   0.0000
    55 H31      3.5340   7.8805  14.0042   H         1 RES1   0.0000
    56 N1       2.7560   6.3361  12.8145   N.am      1 RES1   0.0000
    57 N2       3.0538   7.4855  16.2829   N.am      1 RES1   0.0000
    58 N3       0.6869   6.7416  17.6537   N.am      1 RES1   0.0000
    59 N4      -0.5101   5.1059  15.8527   N.am      1 RES1   0.0000
    60 O1       1.6459   4.9463  11.5209   O.3       1 RES1   0.0000
    61 O2       0.5301   6.5838  12.5118   O.2       1 RES1   0.0000
    62 O3       2.3869   5.5275  15.3335   O.2       1 RES1   0.0000
    63 O4       1.9138   5.2797  18.8612   O.2       1 RES1   0.0000
    64 O5      -2.3997   4.9873  17.0692   O.2       1 RES1   0.0000
    65 O6       0.1553   2.4343  15.4047   O.2       1 RES1   0.0000
    66 O7      -0.6256   2.5536  13.3574   O.3       1 RES1   0.0000
@<TRIPOS>BOND
     1     1     2    1
     2     2    13   ar
     3     3    24    1
     4     4     5    1
     5     5     6    1
     6     6     7    1
     7     7    26    1
     8     8     4    1
     9     9    10    1
    10    10    59   am
    11    11     9    1
    12    12    11    1
    13    13    18   ar
    14    14    12    1
    15    15    12    1
    16    16    17    1
    17    17    65    2
    18    18    19   ar
    19    19    20   ar
    20    20    21   ar
    21    21     2   ar
    22    22    19    1
    23    23    56   am
    24    24    54    1
    25    25    13    1
    26    27     7    1
    27    28     6    1
    28    29     6    1
    29    30     5    1
    30    31     5    1
    31    32     4    1
    32    33    58    1
    33    34     9    1
    34    35    11    1
    35    36    18    1
    36    37    11    1
    37    38    12    1
    38    39    14    1
    39    40    14    1
    40    41    14    1
    41    42    15    1
    42    43    15    1
    43    44    15    1
    44    45    59    1
    45    46    16    1
    46    47    20    1
    47    48    16    1
    48    49    66    1
    49    50    21    1
    50    51    22    1
    51    52    22    1
    52    53    56    1
    53    55    24    1
    54    56    24    1
    55    57     3   am
    56    58     8   am
    57    59    16    1
    58    60    22    1
    59    61    23    2
    60    62     3    2
    61    63     8    2
    62    64    10    2
    63    66    17    1
    64     4    57    1
    65     7    57    1
    66     9    58    1
    67    23    60    1
@<TRIPOS>SUBSTRUCTURE
     1 RES1        1 GROUP             0 ****  ****    0  
@<TRIPOS>CRYSIN
   14.2500    6.2100   29.6700   90.0000   90.0000   90.0000    19     1
