@<TRIPOS>MOLECULE
01
    14    14     1     0     0
SMALL
NO_CHARGES
****
Generated from the CSD

@<TRIPOS>ATOM
     1 Br1      2.8301   1.3022   6.0853   Br        1 RES1   0.0000
     2 C1       2.0648   2.3170   7.4828   C.ar      1 RES1   0.0000
     3 C12      2.5793   3.5105   7.7290   C.ar      1 RES1   0.0000
     4 C17      2.0021   4.2892   8.8090   C.ar      1 RES1   0.0000
     5 C18      1.0431   3.7577   9.5537   C.ar      1 RES1   0.0000
     6 C19      0.5643   2.5386   9.3045   C.ar      1 RES1   0.0000
     7 C20      1.0388   1.7655   8.2453   C.ar      1 RES1   0.0000
     8 C21      0.4446   4.5911  10.7435   C.3       1 RES1   0.0000
     9 H1       3.0923   4.2228   7.2395   H         1 RES1   0.0000
    10 H12      2.6363   5.0860   8.5746   H         1 RES1   0.0000
    11 H23     -0.2422   2.0555  10.1471   H         1 RES1   0.0000
    12 H26      0.5130   0.8197   7.9219   H         1 RES1   0.0000
    13 H27     -0.2137   4.1297  10.7702   H         1 RES1   0.0000
    14 H28      0.1283   5.6635  10.3548   H         1 RES1   0.0000
@<TRIPOS>BOND
     1     1     2    1
     2     2     3   ar
     3     3     4   ar
     4     4     5   ar
     5     5     6   ar
     6     6     7   ar
     7     7     2   ar
     8     8     5    1
     9     9     3    1
    10    10     4    1
    11    11     6    1
    12    12     7    1
    13    13     8    1
    14    14     8    1
@<TRIPOS>SUBSTRUCTURE
     1 RES1        1 GROUP             0 ****  ****    0  
