@<TRIPOS>MOLECULE
02
    15    15     1     0     0
SMALL
NO_CHARGES
****
Generated from the CSD

@<TRIPOS>ATOM
     1 O4       5.2016  13.9167   7.3892   O.3       1 RES2   0.0000
     2 C6       4.9691  12.6154   7.0590   C.ar      1 RES2   0.0000
     3 C8       4.3220  14.5305   8.3430   C.3       1 RES2   0.0000
     4 H3       3.3939  14.4290   8.0433   H         1 RES2   0.0000
     5 H4       4.5374  15.4830   8.4206   H         1 RES2   0.0000
     6 H5       4.4333  14.0984   9.2147   H         1 RES2   0.0000
     7 C13      5.5024  10.8398   5.5293   C.ar      1 RES2   0.0000
     8 H13      6.0094  10.5062   4.7976   H         1 RES2   0.0000
     9 C15      4.0401  11.8007   7.6945   C.ar      1 RES2   0.0000
    10 H14      3.5572  12.1207   8.4469   H         1 RES2   0.0000
    11 C16      3.8255  10.5151   7.2187   C.ar      1 RES2   0.0000
    12 H15      3.1865   9.9552   7.6446   H         1 RES2   0.0000
    13 C18      4.5350  10.0413   6.1285   C.ar      1 RES2   0.0000
    14 C19      5.7243  12.1208   6.0008   C.ar      1 RES2   0.0000
    15 H17      6.3937  12.6640   5.6016   H         1 RES2   0.0000
@<TRIPOS>BOND
     1     1     2    1
     2     2     9   ar
     3     3     1    1
     4     4     3    1
     5     5     3    1
     6     6     3    1
     7     7     8    1
     8     9    10    1
     9    11     9   ar
    10    12    11    1
    11    14     2   ar
    12    15    14    1
    13     7    13   ar
    14     7    14   ar
    15    11    13   ar
@<TRIPOS>SUBSTRUCTURE
     1 RES2        1 GROUP             0 ****  ****    0  
