@<TRIPOS>MOLECULE
BELMOX
    48    49     1     0     0
SMALL
NO_CHARGES
****
Generated from the CSD

@<TRIPOS>ATOM
     1 S1       4.0119   8.5719   5.2955   S.3       1 RES1   0.0000
     2 F1       3.9009   6.1217   4.2617   F         1 RES1   0.0000
     3 O1       5.7824   7.4219   6.9151   O.2       1 RES1   0.0000
     4 O2       4.6203   4.5594   7.3050   O.3       1 RES1   0.0000
     5 O3      10.2233   9.0784   1.9855   O.2       1 RES1   0.0000
     6 O4       5.2016  13.9167   7.3892   O.3       1 RES1   0.0000
     7 O5       7.8785   3.2099   4.9037   O.2       1 RES1   0.0000
     8 N1       7.0008   3.1846   4.0571   N.pl3     1 RES1   0.0000
     9 N2       9.2447   8.5138   1.5032   N.pl3     1 RES1   0.0000
    10 O6       8.9355   8.5809   0.3188   O.2       1 RES1   0.0000
    11 O7       7.0776   2.5878   2.9987   O.2       1 RES1   0.0000
    12 O8       2.6908   4.8349   6.1697   O.2       1 RES1   0.0000
    13 C1       3.8559   5.0481   6.3331   C.2       1 RES1   0.0000
    14 C2       4.6912   5.9257   5.3888   C.3       1 RES1   0.0000
    15 C3       8.0490   6.6689   4.5070   C.ar      1 RES1   0.0000
    16 H1       8.3365   6.4826   5.3924   H         1 RES1   0.0000
    17 C4       8.3982   7.6987   2.3937   C.ar      1 RES1   0.0000
    18 C5       8.8314   7.4590   3.6814   C.ar      1 RES1   0.0000
    19 H2       9.6483   7.8285   3.9953   H         1 RES1   0.0000
    20 C6       4.9691  12.6154   7.0590   C.ar      1 RES1   0.0000
    21 C7       4.9771   7.3014   6.0298   C.2       1 RES1   0.0000
    22 C8       4.3220  14.5305   8.3430   C.3       1 RES1   0.0000
    23 H3       3.3939  14.4290   8.0433   H         1 RES1   0.0000
    24 H4       4.5374  15.4830   8.4206   H         1 RES1   0.0000
    25 H5       4.4333  14.0984   9.2147   H         1 RES1   0.0000
    26 C9       5.7203   3.9077   4.3495   C.3       1 RES1   0.0000
    27 H6       5.1677   3.3686   4.9706   H         1 RES1   0.0000
    28 H7       5.2093   4.0314   3.5109   H         1 RES1   0.0000
    29 C10      3.9408   3.7059   8.2693   C.3       1 RES1   0.0000
    30 H8       3.5733   2.9215   7.8093   H         1 RES1   0.0000
    31 H9       3.2129   4.2068   8.6924   H         1 RES1   0.0000
    32 H10      4.5783   3.4151   8.9544   H         1 RES1   0.0000
    33 C11      6.0142   5.2671   4.9752   C.3       1 RES1   0.0000
    34 H11      6.5491   5.1103   5.8059   H         1 RES1   0.0000
    35 C12      7.2178   7.1894   1.9018   C.ar      1 RES1   0.0000
    36 H12      6.9423   7.3721   1.0116   H         1 RES1   0.0000
    37 C13      5.5024  10.8398   5.5293   C.ar      1 RES1   0.0000
    38 H13      6.0094  10.5062   4.7976   H         1 RES1   0.0000
    39 C14      6.8446   6.1459   4.0472   C.ar      1 RES1   0.0000
    40 C15      4.0401  11.8007   7.6945   C.ar      1 RES1   0.0000
    41 H14      3.5572  12.1207   8.4469   H         1 RES1   0.0000
    42 C16      3.8255  10.5151   7.2187   C.ar      1 RES1   0.0000
    43 H15      3.1865   9.9552   7.6446   H         1 RES1   0.0000
    44 C17      6.4442   6.4056   2.7339   C.ar      1 RES1   0.0000
    45 H16      5.6306   6.0386   2.4104   H         1 RES1   0.0000
    46 C18      4.5350  10.0413   6.1285   C.ar      1 RES1   0.0000
    47 C19      5.7243  12.1208   6.0008   C.ar      1 RES1   0.0000
    48 H17      6.3937  12.6640   5.6016   H         1 RES1   0.0000
@<TRIPOS>BOND
     1     1    21    1
     2     2    14    1
     3     3    21    2
     4     4    13    1
     5     5     9    2
     6     6    20    1
     7     7     8    2
     8     8    11    2
     9     9    10    2
    10    12    13    2
    11    13    14    1
    12    14    21    1
    13    15    16    1
    14    17     9    1
    15    18    15   ar
    16    19    18    1
    17    20    40   ar
    18    22     6    1
    19    23    22    1
    20    24    22    1
    21    25    22    1
    22    26     8    1
    23    27    26    1
    24    28    26    1
    25    29     4    1
    26    30    29    1
    27    31    29    1
    28    32    29    1
    29    33    14    1
    30    34    33    1
    31    35    17   ar
    32    36    35    1
    33    37    38    1
    34    39    15   ar
    35    40    41    1
    36    42    40   ar
    37    43    42    1
    38    44    35   ar
    39    45    44    1
    40    46     1    1
    41    47    20   ar
    42    48    47    1
    43    17    18   ar
    44    26    33    1
    45    33    39    1
    46    37    46   ar
    47    37    47   ar
    48    39    44   ar
    49    42    46   ar
@<TRIPOS>SUBSTRUCTURE
     1 RES1        1 GROUP             0 ****  ****    0  
@<TRIPOS>CRYSIN
    8.0082   15.5234   16.4754   90.0000   90.0000   90.0000    19     1
