@<TRIPOS>MOLECULE
01
    13    13     1     0     0
SMALL
NO_CHARGES
****
Generated from the CSD

@<TRIPOS>ATOM
     1 O3      10.2233   9.0784   1.9855   O.2       1 RES1   0.0000
     2 N2       9.2447   8.5138   1.5032   N.pl3     1 RES1   0.0000
     3 O6       8.9355   8.5809   0.3188   O.2       1 RES1   0.0000
     4 C3       8.0490   6.6689   4.5070   C.ar      1 RES1   0.0000
     5 H1       8.3365   6.4826   5.3924   H         1 RES1   0.0000
     6 C4       8.3982   7.6987   2.3937   C.ar      1 RES1   0.0000
     7 C5       8.8314   7.4590   3.6814   C.ar      1 RES1   0.0000
     8 H2       9.6483   7.8285   3.9953   H         1 RES1   0.0000
     9 C12      7.2178   7.1894   1.9018   C.ar      1 RES1   0.0000
    10 H12      6.9423   7.3721   1.0116   H         1 RES1   0.0000
    11 C14      6.8446   6.1459   4.0472   C.ar      1 RES1   0.0000
    12 C17      6.4442   6.4056   2.7339   C.ar      1 RES1   0.0000
    13 H16      5.6306   6.0386   2.4104   H         1 RES1   0.0000
@<TRIPOS>BOND
     1     1     2    2
     2     2     3    2
     3     4     5    1
     4     6     2    1
     5     7     4   ar
     6     8     7    1
     7     9     6   ar
     8    10     9    1
     9    11     4   ar
    10    12     9   ar
    11    13    12    1
    12     6     7   ar
    13    11    12   ar
@<TRIPOS>SUBSTRUCTURE
     1 RES1        1 GROUP             0 ****  ****    0  
