@<TRIPOS>MOLECULE
01
    20    20     1     0     0
SMALL
NO_CHARGES
****
Generated from the CSD

@<TRIPOS>ATOM
     1 O1      11.8977  -0.4276  13.7917   O.2       1 RES1   0.0000
     2 O3       9.2091   3.8221  12.3277   O.3       1 RES1   0.0000
     3 C1      10.9262  -0.7259  13.1286   C.2       1 RES1   0.0000
     4 H1      10.7225  -1.6895  12.9565   H         1 RES1   0.0000
     5 C2       9.9736   0.2143  12.5462   C.ar      1 RES1   0.0000
     6 C3      10.0950   1.5971  12.7588   C.ar      1 RES1   0.0000
     7 H2      10.8522   1.9310  13.2890   H         1 RES1   0.0000
     8 C4       9.1839   2.4673  12.2012   C.ar      1 RES1   0.0000
     9 C5       8.1201   1.9570  11.4099   C.ar      1 RES1   0.0000
    10 C6       8.0057   0.5891  11.2099   C.ar      1 RES1   0.0000
    11 H3       7.2732   0.2261  10.6860   H         1 RES1   0.0000
    12 C7       8.9319  -0.2765  11.7753   C.ar      1 RES1   0.0000
    13 H4       8.8654  -1.2501  11.6105   H         1 RES1   0.0000
    14 C30     10.2348   4.3766  13.1672   C.3       1 RES1   0.0000
    15 H25     11.1338   4.1504  12.8187   H         1 RES1   0.0000
    16 H26     10.1800   3.9296  14.0809   H         1 RES1   0.0000
    17 C31     10.0158   5.8607  13.2325   C.3       1 RES1   0.0000
    18 H27     10.1254   6.3132  12.3267   H         1 RES1   0.0000
    19 H28      9.0712   6.0747  13.5309   H         1 RES1   0.0000
    20 H29     10.6664   6.2497  13.8309   H         1 RES1   0.0000
@<TRIPOS>BOND
     1     1     3    2
     2     2     8    1
     3     3     4    1
     4     5     3    1
     5     6     5   ar
     6     7     6    1
     7     8     6   ar
     8     9     8   ar
     9    10     9   ar
    10    11    10    1
    11    12     5   ar
    12    13    12    1
    13    14     2    1
    14    15    14    1
    15    16    14    1
    16    17    14    1
    17    18    17    1
    18    19    17    1
    19    20    17    1
    20    10    12   ar
@<TRIPOS>SUBSTRUCTURE
     1 RES1        1 GROUP             0 ****  ****    0  
