@<TRIPOS>MOLECULE
02
    14    14     1     0     0
SMALL
NO_CHARGES
****
Generated from the CSD

@<TRIPOS>ATOM
     1 C23      1.7653  12.7286   3.5981   C.3       1 RES2   0.0000
     2 H18      2.6782  13.1350   3.7300   H         1 RES2   0.0000
     3 H19      1.7581  12.1390   2.7989   H         1 RES2   0.0000
     4 C24      0.7168  13.8103   3.4664   C.ar      1 RES2   0.0000
     5 C25     -0.4777  13.7521   4.1659   C.ar      1 RES2   0.0000
     6 H20     -0.6455  13.0027   4.7626   H         1 RES2   0.0000
     7 C26     -1.4245  14.7603   4.0078   C.ar      1 RES2   0.0000
     8 H21     -2.2323  14.6918   4.4869   H         1 RES2   0.0000
     9 C27     -1.1761  15.8319   3.1759   C.ar      1 RES2   0.0000
    10 H22     -1.8193  16.5468   3.0935   H         1 RES2   0.0000
    11 C28      0.0139  15.8943   2.4771   C.ar      1 RES2   0.0000
    12 H23      0.1675  16.6529   1.8691   H         1 RES2   0.0000
    13 C29      0.9518  14.8854   2.6168   C.ar      1 RES2   0.0000
    14 H24      1.7511  14.9251   2.1650   H         1 RES2   0.0000
@<TRIPOS>BOND
     1     2     1    1
     2     3     1    1
     3     4     1    1
     4     5     4   ar
     5     6     5    1
     6     7     5   ar
     7     8     7    1
     8     9     7   ar
     9    10     9    1
    10    11     9   ar
    11    12    11    1
    12    13     4   ar
    13    14    13    1
    14    11    13   ar
@<TRIPOS>SUBSTRUCTURE
     1 RES2        1 GROUP             0 ****  ****    0  
