@<TRIPOS>MOLECULE
01
    40    40     1     0     0
SMALL
NO_CHARGES
****
Generated from the CSD

@<TRIPOS>ATOM
     1 O1       5.8642   7.7804   2.7033   O.3       1 RES1   0.0000
     2 O2       3.5071   9.0649  -1.2000   O.3       1 RES1   0.0000
     3 O3       2.8334   7.2603   0.0348   O.3       1 RES1   0.0000
     4 O4       7.5415   6.2803   2.6146   O.2       1 RES1   0.0000
     5 O5       1.2568   5.7978   1.9281   O.3       1 RES1   0.0000
     6 O7       4.6736   5.0652   2.2568   O.3       1 RES1   0.0000
     7 C1       7.0511   7.2529   3.1043   C.2       1 RES1   0.0000
     8 C4       4.1071   6.3279   1.8516   C.3       1 RES1   0.0000
     9 H4       3.5494   6.7190   2.5825   H         1 RES1   0.0000
    10 C6       0.5203   4.9630   2.6934   C.2       1 RES1   0.0000
    11 O10      0.5305   3.7682   2.5756   O.2       1 RES1   0.0000
    12 C8       3.9620   7.9603  -0.5017   C.3       1 RES1   0.0000
    13 H6       4.5005   7.3617  -1.0943   H         1 RES1   0.0000
    14 C9       5.2634   7.2506   1.4987   C.3       1 RES1   0.0000
    15 H7       5.9504   6.7394   0.9845   H         1 RES1   0.0000
    16 C10      4.8043   8.4568   0.6759   C.3       1 RES1   0.0000
    17 H8       4.2409   9.0486   1.2534   H         1 RES1   0.0000
    18 C13      2.9542   8.7345  -2.4810   C.3       1 RES1   0.0000
    19 H10      3.6582   8.3627  -3.0520   H         1 RES1   0.0000
    20 H11      2.5881   9.5428  -2.8967   H         1 RES1   0.0000
    21 H12      2.2412   8.0725  -2.3666   H         1 RES1   0.0000
    22 C14      2.0598   5.1512   0.9175   C.3       1 RES1   0.0000
    23 H13      1.5259   5.0163   0.0947   H         1 RES1   0.0000
    24 H14      2.3625   4.2658   1.2420   H         1 RES1   0.0000
    25 C15      3.2512   6.0229   0.6191   C.3       1 RES1   0.0000
    26 H15      3.8260   5.5457  -0.0454   H         1 RES1   0.0000
    27 C16      4.5254   4.6773   3.5496   C.2       1 RES1   0.0000
    28 O11      3.9212   5.3189   4.3500   O.2       1 RES1   0.0000
    29 C19      7.6145   8.0691   4.2255   C.3       1 RES1   0.0000
    30 H17      7.8276   8.9681   3.9002   H         1 RES1   0.0000
    31 H18      8.4296   7.6417   4.5629   H         1 RES1   0.0000
    32 H19      6.9559   8.1303   4.9491   H         1 RES1   0.0000
    33 C20     -0.3140   5.7259   3.6643   C.3       1 RES1   0.0000
    34 H20     -0.9908   6.2417   3.1770   H         1 RES1   0.0000
    35 H21      0.2573   6.3369   4.1766   H         1 RES1   0.0000
    36 H22     -0.7550   5.1024   4.2789   H         1 RES1   0.0000
    37 C21      5.2317   3.3907   3.7889   C.3       1 RES1   0.0000
    38 H23      5.3257   2.9066   2.9422   H         1 RES1   0.0000
    39 H24      4.7136   2.8465   4.4190   H         1 RES1   0.0000
    40 H25      6.1193   3.5698   4.1653   H         1 RES1   0.0000
@<TRIPOS>BOND
     1     1     7    1
     2     2    12    1
     3     3    12    1
     4     4     7    2
     5     5    10    1
     6     6     8    1
     7     7    29    1
     8     8     9    1
     9    10    11    2
    10    12    13    1
    11    14     1    1
    12    15    14    1
    13    17    16    1
    14    18     2    1
    15    19    18    1
    16    20    18    1
    17    21    18    1
    18    22     5    1
    19    23    22    1
    20    24    22    1
    21    25     3    1
    22    26    25    1
    23    27     6    1
    24    28    27    2
    25    29    30    1
    26    31    29    1
    27    32    29    1
    28    33    10    1
    29    34    33    1
    30    35    33    1
    31    36    33    1
    32    37    27    1
    33    38    37    1
    34    39    37    1
    35    40    37    1
    36     8    14    1
    37     8    25    1
    38    12    16    1
    39    14    16    1
    40    22    25    1
@<TRIPOS>SUBSTRUCTURE
     1 RES1        1 GROUP             0 ****  ****    0  
