@<TRIPOS>MOLECULE
BEWYIN
    61    62     1     0     0
SMALL
NO_CHARGES
****
Generated from the CSD

@<TRIPOS>ATOM
     1 S1       5.6276  11.1584   2.0192   S.2       1 RES1   0.0000
     2 O1       5.8642   7.7804   2.7033   O.3       1 RES1   0.0000
     3 O2       3.5071   9.0649  -1.2000   O.3       1 RES1   0.0000
     4 O3       2.8334   7.2603   0.0348   O.3       1 RES1   0.0000
     5 O4       7.5415   6.2803   2.6146   O.2       1 RES1   0.0000
     6 O5       1.2568   5.7978   1.9281   O.3       1 RES1   0.0000
     7 O6       8.1519   9.3626  -1.3071   O.2       1 RES1   0.0000
     8 O7       4.6736   5.0652   2.2568   O.3       1 RES1   0.0000
     9 N1       5.9662   9.2095   0.2117   N.am      1 RES1   0.0000
    10 H1       6.4344   8.8842  -0.4582   H         1 RES1   0.0000
    11 N2       7.4762  10.9632   0.1708   N.am      1 RES1   0.0000
    12 H2       7.6644  11.7749   0.4544   H         1 RES1   0.0000
    13 C1       7.0511   7.2529   3.1043   C.2       1 RES1   0.0000
    14 C2       9.4805  11.3271  -1.1530   C.ar      1 RES1   0.0000
    15 O8      12.8927  13.7837  -3.6332   O.2       1 RES1   0.0000
    16 O9      13.3205  14.3720  -1.5904   O.2       1 RES1   0.0000
    17 C3      11.0052  13.1421  -0.7448   C.ar      1 RES1   0.0000
    18 H3      11.3271  13.8438  -0.1931   H         1 RES1   0.0000
    19 N3      12.6909  13.7383  -2.4291   N.pl3     1 RES1   0.0000
    20 C4       4.1071   6.3279   1.8516   C.3       1 RES1   0.0000
    21 H4       3.5494   6.7190   2.5825   H         1 RES1   0.0000
    22 C5       6.3528  10.3636   0.7505   C.2       1 RES1   0.0000
    23 C6       0.5203   4.9630   2.6934   C.2       1 RES1   0.0000
    24 C7       9.9362  12.3610  -0.3525   C.ar      1 RES1   0.0000
    25 H5       9.5088  12.5344   0.4771   H         1 RES1   0.0000
    26 O10      0.5305   3.7682   2.5756   O.2       1 RES1   0.0000
    27 C8       3.9620   7.9603  -0.5017   C.3       1 RES1   0.0000
    28 H6       4.5005   7.3617  -1.0943   H         1 RES1   0.0000
    29 C9       5.2634   7.2506   1.4987   C.3       1 RES1   0.0000
    30 H7       5.9504   6.7394   0.9845   H         1 RES1   0.0000
    31 C10      4.8043   8.4568   0.6759   C.3       1 RES1   0.0000
    32 H8       4.2409   9.0486   1.2534   H         1 RES1   0.0000
    33 C11     10.1334  11.0528  -2.3564   C.ar      1 RES1   0.0000
    34 H9       9.8500  10.3216  -2.8930   H         1 RES1   0.0000
    35 C12     11.5913  12.8745  -1.9588   C.ar      1 RES1   0.0000
    36 C13      2.9542   8.7345  -2.4810   C.3       1 RES1   0.0000
    37 H10      3.6582   8.3627  -3.0520   H         1 RES1   0.0000
    38 H11      2.5881   9.5428  -2.8967   H         1 RES1   0.0000
    39 H12      2.2412   8.0725  -2.3666   H         1 RES1   0.0000
    40 C14      2.0598   5.1512   0.9175   C.3       1 RES1   0.0000
    41 H13      1.5259   5.0163   0.0947   H         1 RES1   0.0000
    42 H14      2.3625   4.2658   1.2420   H         1 RES1   0.0000
    43 C15      3.2512   6.0229   0.6191   C.3       1 RES1   0.0000
    44 H15      3.8260   5.5457  -0.0454   H         1 RES1   0.0000
    45 C16      4.5254   4.6773   3.5496   C.2       1 RES1   0.0000
    46 C17      8.3276  10.4542  -0.7853   C.2       1 RES1   0.0000
    47 C18     11.1832  11.8361  -2.7657   C.ar      1 RES1   0.0000
    48 H16     11.6196  11.6649  -3.5935   H         1 RES1   0.0000
    49 O11      3.9212   5.3189   4.3500   O.2       1 RES1   0.0000
    50 C19      7.6145   8.0691   4.2255   C.3       1 RES1   0.0000
    51 H17      7.8276   8.9681   3.9002   H         1 RES1   0.0000
    52 H18      8.4296   7.6417   4.5629   H         1 RES1   0.0000
    53 H19      6.9559   8.1303   4.9491   H         1 RES1   0.0000
    54 C20     -0.3140   5.7259   3.6643   C.3       1 RES1   0.0000
    55 H20     -0.9908   6.2417   3.1770   H         1 RES1   0.0000
    56 H21      0.2573   6.3369   4.1766   H         1 RES1   0.0000
    57 H22     -0.7550   5.1024   4.2789   H         1 RES1   0.0000
    58 C21      5.2317   3.3907   3.7889   C.3       1 RES1   0.0000
    59 H23      5.3257   2.9066   2.9422   H         1 RES1   0.0000
    60 H24      4.7136   2.8465   4.4190   H         1 RES1   0.0000
    61 H25      6.1193   3.5698   4.1653   H         1 RES1   0.0000
@<TRIPOS>BOND
     1     1    22    2
     2     2    13    1
     3     3    27    1
     4     4    27    1
     5     5    13    2
     6     6    23    1
     7     7    46    2
     8     8    20    1
     9     9    10    1
    10    11    12    1
    11    13    50    1
    12    14    24   ar
    13    15    19    2
    14    16    19    2
    15    17    18    1
    16    19    35    1
    17    20    21    1
    18    22     9   am
    19    23    26    2
    20    24    17   ar
    21    25    24    1
    22    27    28    1
    23    29     2    1
    24    30    29    1
    25    31     9    1
    26    32    31    1
    27    33    14   ar
    28    34    33    1
    29    35    17   ar
    30    36     3    1
    31    37    36    1
    32    38    36    1
    33    39    36    1
    34    40     6    1
    35    41    40    1
    36    42    40    1
    37    43     4    1
    38    44    43    1
    39    45     8    1
    40    46    11   am
    41    47    33   ar
    42    48    47    1
    43    49    45    2
    44    50    51    1
    45    52    50    1
    46    53    50    1
    47    54    23    1
    48    55    54    1
    49    56    54    1
    50    57    54    1
    51    58    45    1
    52    59    58    1
    53    60    58    1
    54    61    58    1
    55    11    22   am
    56    14    46    1
    57    20    29    1
    58    20    43    1
    59    27    31    1
    60    29    31    1
    61    35    47   ar
    62    40    43    1
@<TRIPOS>SUBSTRUCTURE
     1 RES1        1 GROUP             0 ****  ****    0  
@<TRIPOS>CRYSIN
   11.3362   11.3362   37.8660   90.0000   90.0000   90.0000    96     1
