@<TRIPOS>MOLECULE
02
    13    13     1     0     0
SMALL
NO_CHARGES
****
Generated from the CSD

@<TRIPOS>ATOM
     1 C2       9.4805  11.3271  -1.1530   C.ar      1 RES2   0.0000
     2 O8      12.8927  13.7837  -3.6332   O.2       1 RES2   0.0000
     3 O9      13.3205  14.3720  -1.5904   O.2       1 RES2   0.0000
     4 C3      11.0052  13.1421  -0.7448   C.ar      1 RES2   0.0000
     5 H3      11.3271  13.8438  -0.1931   H         1 RES2   0.0000
     6 N3      12.6909  13.7383  -2.4291   N.pl3     1 RES2   0.0000
     7 C7       9.9362  12.3610  -0.3525   C.ar      1 RES2   0.0000
     8 H5       9.5088  12.5344   0.4771   H         1 RES2   0.0000
     9 C11     10.1334  11.0528  -2.3564   C.ar      1 RES2   0.0000
    10 H9       9.8500  10.3216  -2.8930   H         1 RES2   0.0000
    11 C12     11.5913  12.8745  -1.9588   C.ar      1 RES2   0.0000
    12 C18     11.1832  11.8361  -2.7657   C.ar      1 RES2   0.0000
    13 H16     11.6196  11.6649  -3.5935   H         1 RES2   0.0000
@<TRIPOS>BOND
     1     1     7   ar
     2     2     6    2
     3     3     6    2
     4     4     5    1
     5     6    11    1
     6     7     4   ar
     7     8     7    1
     8     9     1   ar
     9    10     9    1
    10    11     4   ar
    11    12     9   ar
    12    13    12    1
    13    11    12   ar
@<TRIPOS>SUBSTRUCTURE
     1 RES2        1 GROUP             0 ****  ****    0  
