@<TRIPOS>MOLECULE
02
    15    15     1     0     0
SMALL
NO_CHARGES
****
Generated from the CSD

@<TRIPOS>ATOM
     1 O10      3.6030   4.2923   7.7691   O.3       1 RES2   0.0000
     2 C5       7.1243   4.7924   6.8663   C.ar      1 RES2   0.0000
     3 C6       7.1347   6.1654   6.6960   C.ar      1 RES2   0.0000
     4 C7       5.9752   6.8694   6.9175   C.ar      1 RES2   0.0000
     5 C8       4.8238   6.2290   7.2917   C.ar      1 RES2   0.0000
     6 C9       4.8064   4.8494   7.4302   C.ar      1 RES2   0.0000
     7 C10      5.9656   4.1278   7.2184   C.ar      1 RES2   0.0000
     8 C21      3.5372   2.8820   7.9006   C.3       1 RES2   0.0000
     9 H2       7.9229   6.6018   6.4338   H         1 RES2   0.0000
    10 H3       5.9713   7.8081   6.8133   H         1 RES2   0.0000
    11 H4       4.0349   6.7334   7.4576   H         1 RES2   0.0000
    12 H5       5.9685   3.1803   7.3164   H         1 RES2   0.0000
    13 H17      2.6050   2.6100   8.1460   H         1 RES2   0.0000
    14 H18      3.7871   2.4565   7.0340   H         1 RES2   0.0000
    15 H19      4.1718   2.5881   8.6137   H         1 RES2   0.0000
@<TRIPOS>BOND
     1     1     6    1
     2     3     2   ar
     3     4     3   ar
     4     5     4   ar
     5     6     5   ar
     6     7     2   ar
     7     8     1    1
     8     9     3    1
     9    10     4    1
    10    11     5    1
    11    12     7    1
    12    13     8    1
    13    14     8    1
    14    15     8    1
    15     6     7   ar
@<TRIPOS>SUBSTRUCTURE
     1 RES2        1 GROUP             0 ****  ****    0  
