@<TRIPOS>MOLECULE
01
    13    13     1     0     0
SMALL
NO_CHARGES
****
Generated from the CSD

@<TRIPOS>ATOM
     1 O8      15.8479   1.1295   2.1676   O.2       1 RES1   0.0000
     2 O9      16.4680  -0.7677   2.9980   O.2       1 RES1   0.0000
     3 N2      15.7089   0.1842   2.9433   N.pl3     1 RES1   0.0000
     4 C15     12.4543   0.3027   5.6078   C.ar      1 RES1   0.0000
     5 C16     12.7541   1.4103   4.8135   C.ar      1 RES1   0.0000
     6 C17     13.7970   1.3577   3.9203   C.ar      1 RES1   0.0000
     7 C18     14.5485   0.2084   3.8418   C.ar      1 RES1   0.0000
     8 C19     14.2573  -0.9080   4.5716   C.ar      1 RES1   0.0000
     9 C20     13.1922  -0.8598   5.4515   C.ar      1 RES1   0.0000
    10 H13     12.2318   2.1933   4.8894   H         1 RES1   0.0000
    11 H14     13.9898   2.1056   3.3625   H         1 RES1   0.0000
    12 H15     14.7712  -1.6888   4.4746   H         1 RES1   0.0000
    13 H16     12.9581  -1.6230   5.9573   H         1 RES1   0.0000
@<TRIPOS>BOND
     1     1     3    2
     2     2     3    2
     3     3     7    1
     4     4     5   ar
     5     5     6   ar
     6     6     7   ar
     7     7     8   ar
     8     8     9   ar
     9     9     4   ar
    10    10     5    1
    11    11     6    1
    12    12     8    1
    13    13     9    1
@<TRIPOS>SUBSTRUCTURE
     1 RES1        1 GROUP             0 ****  ****    0  
