@<TRIPOS>MOLECULE
02
    11    11     1     0     0
SMALL
NO_CHARGES
****
Generated from the CSD

@<TRIPOS>ATOM
     1 C20      2.0250   6.3091  11.1405   C.ar      1 RES2   0.0000
     2 C21      0.6765   6.1662  10.8896   C.ar      1 RES2   0.0000
     3 H24      0.3145   6.4727  10.0667   H         1 RES2   0.0000
     4 C22     -0.1524   5.5824  11.8260   C.ar      1 RES2   0.0000
     5 H25     -1.0788   5.4820  11.6390   H         1 RES2   0.0000
     6 C23      0.3530   5.1419  13.0327   C.ar      1 RES2   0.0000
     7 H26     -0.2190   4.7334  13.6713   H         1 RES2   0.0000
     8 C24      1.6971   5.3000  13.3043   C.ar      1 RES2   0.0000
     9 H27      2.0490   5.0158  14.1395   H         1 RES2   0.0000
    10 C25      2.5339   5.8750  12.3574   C.ar      1 RES2   0.0000
    11 H28      3.4605   5.9723  12.5427   H         1 RES2   0.0000
@<TRIPOS>BOND
     1     2     1   ar
     2     3     2    1
     3     4     2   ar
     4     5     4    1
     5     6     4   ar
     6     7     6    1
     7     8     6   ar
     8     9     8    1
     9    10     1   ar
    10    11    10    1
    11     8    10   ar
@<TRIPOS>SUBSTRUCTURE
     1 RES2        1 GROUP             0 ****  ****    0  
