@<TRIPOS>MOLECULE
01
    13    13     1     0     0
SMALL
NO_CHARGES
****
Generated from the CSD

@<TRIPOS>ATOM
     1 O6      -4.4941   2.7976  11.0018   O.2       1 RES1   0.0000
     2 O7      -5.4801   4.6592  11.4875   O.2       1 RES1   0.0000
     3 N3      -4.6219   4.0119  10.9005   N.pl3     1 RES1   0.0000
     4 C12     -2.0399   6.0993   8.3159   C.ar      1 RES1   0.0000
     5 C13     -2.0853   4.7070   8.2737   C.ar      1 RES1   0.0000
     6 H18     -1.5483   4.2351   7.6481   H         1 RES1   0.0000
     7 C14     -2.9116   4.0084   9.1406   C.ar      1 RES1   0.0000
     8 H19     -2.9428   3.0585   9.1302   H         1 RES1   0.0000
     9 C15     -3.6898   4.7394  10.0231   C.ar      1 RES1   0.0000
    10 C16     -3.6435   6.1179  10.1132   C.ar      1 RES1   0.0000
    11 H20     -4.1791   6.5842  10.7446   H         1 RES1   0.0000
    12 C17     -2.7961   6.7990   9.2584   C.ar      1 RES1   0.0000
    13 H21     -2.7290   7.7447   9.3128   H         1 RES1   0.0000
@<TRIPOS>BOND
     1     1     3    2
     2     2     3    2
     3     3     9    1
     4     5     4   ar
     5     6     5    1
     6     7     5   ar
     7     8     7    1
     8     9     7   ar
     9    10     9   ar
    10    11    10    1
    11    12     4   ar
    12    13    12    1
    13    10    12   ar
@<TRIPOS>SUBSTRUCTURE
     1 RES1        1 GROUP             0 ****  ****    0  
