@<TRIPOS>MOLECULE
01
    26    28     1     0     0
SMALL
NO_CHARGES
****
Generated from the CSD

@<TRIPOS>ATOM
     1 N2       4.0452   7.0203  -2.4536   N.ar      1 RES1   0.0000
     2 C1       5.3867   6.1921  -0.5854   C.ar      1 RES1   0.0000
     3 C2       4.8250   7.2092   0.2634   C.ar      1 RES1   0.0000
     4 C3       3.5572   7.9495  -1.6534   C.ar      1 RES1   0.0000
     5 C4       4.9179   6.1237  -1.9246   C.ar      1 RES1   0.0000
     6 C5       3.8634   8.0708  -0.2678   C.ar      1 RES1   0.0000
     7 C6       5.3772   5.0653  -2.7568   C.ar      1 RES1   0.0000
     8 C7       6.3350   5.2323  -0.1472   C.ar      1 RES1   0.0000
     9 C13      6.7532   4.2302  -0.9728   C.ar      1 RES1   0.0000
    10 C14      6.2542   4.1282  -2.2798   C.ar      1 RES1   0.0000
    11 C16      3.0327   9.0091   0.5821   C.3       1 RES1   0.0000
    12 H5       3.5478   9.8124   0.7571   H         1 RES1   0.0000
    13 H6       2.8508   8.5833   1.4341   H         1 RES1   0.0000
    14 C17      2.5759   8.8906  -2.3340   C.3       1 RES1   0.0000
    15 H7       3.0310   9.3304  -3.0695   H         1 RES1   0.0000
    16 H8       1.8544   8.3633  -2.7110   H         1 RES1   0.0000
    17 C22      1.7112   9.4022  -0.0664   C.3       1 RES1   0.0000
    18 H13      1.1312   8.6271  -0.1278   H         1 RES1   0.0000
    19 H14      1.2657  10.0730   0.4750   H         1 RES1   0.0000
    20 C27      1.9792   9.9489  -1.4376   C.3       1 RES1   0.0000
    21 H22      2.5911  10.6990  -1.3720   H         1 RES1   0.0000
    22 H23      1.1504  10.2705  -1.8248   H         1 RES1   0.0000
    23 H29      6.6645   5.2794   0.7304   H         1 RES1   0.0000
    24 H30      5.0630   5.0498  -3.7075   H         1 RES1   0.0000
    25 H31      6.5374   3.3830  -2.7446   H         1 RES1   0.0000
    26 H32      7.3718   3.5410  -0.6419   H         1 RES1   0.0000
@<TRIPOS>BOND
     1     1     4   ar
     2     2     3   ar
     3     3     6   ar
     4     4     6   ar
     5     5     1   ar
     6     6    11    1
     7     7     5   ar
     8     8     2   ar
     9     9     8   ar
    10    10     7   ar
    11    11    12    1
    12    13    11    1
    13    14     4    1
    14    15    14    1
    15    16    14    1
    16    17    11    1
    17    18    17    1
    18    19    17    1
    19    20    14    1
    20    21    20    1
    21    22    20    1
    22    23     8    1
    23    24     7    1
    24    25    10    1
    25    26     9    1
    26     2     5   ar
    27     9    10   ar
    28    17    20    1
@<TRIPOS>SUBSTRUCTURE
     1 RES1        1 GROUP             0 ****  ****    0  
