@<TRIPOS>MOLECULE
BICYOF
    70    73     1     0     0
SMALL
NO_CHARGES
****
Generated from the CSD

@<TRIPOS>ATOM
     1 N1       5.2164   7.2186   1.5852   N.pl3     1 RES1   0.0000
     2 N2       4.0452   7.0203  -2.4536   N.ar      1 RES1   0.0000
     3 N3       3.3897  10.3986   8.1642   N.2       1 RES1   0.0000
     4 N4       2.9251  10.3213   6.9778   N.2       1 RES1   0.0000
     5 O1       5.1825   8.7728  10.7184   O.2       1 RES1   0.0000
     6 F1       4.8346  11.9688   9.9305   F         1 RES1   0.0000
     7 N5       4.0510   8.0394   6.6945   N.pl3     1 RES1   0.0000
     8 F2       3.0901  11.1910  10.8734   F         1 RES1   0.0000
     9 C1       5.3867   6.1921  -0.5854   C.ar      1 RES1   0.0000
    10 C2       4.8250   7.2092   0.2634   C.ar      1 RES1   0.0000
    11 C3       3.5572   7.9495  -1.6534   C.ar      1 RES1   0.0000
    12 F3       4.9879  11.0196  11.8218   F         1 RES1   0.0000
    13 C4       4.9179   6.1237  -1.9246   C.ar      1 RES1   0.0000
    14 C5       3.8634   8.0708  -0.2678   C.ar      1 RES1   0.0000
    15 C6       5.3772   5.0653  -2.7568   C.ar      1 RES1   0.0000
    16 C7       6.3350   5.2323  -0.1472   C.ar      1 RES1   0.0000
    17 C8       4.2227   9.3931   8.6279   C.2       1 RES1   0.0000
    18 C9       4.6079   8.2320   7.8808   C.2       1 RES1   0.0000
    19 C10      5.3629   8.4014   2.4513   C.3       1 RES1   0.0000
    20 H1       5.0774   9.1891   1.9623   H         1 RES1   0.0000
    21 H2       6.2999   8.5153   2.6760   H         1 RES1   0.0000
    22 C11      4.5551   8.2918   3.7318   C.3       1 RES1   0.0000
    23 H3       4.6189   9.1278   4.2192   H         1 RES1   0.0000
    24 H4       3.6224   8.1495   3.5066   H         1 RES1   0.0000
    25 C12      2.0586  11.3762   6.5982   C.ar      1 RES1   0.0000
    26 C13      6.7532   4.2302  -0.9728   C.ar      1 RES1   0.0000
    27 C14      6.2542   4.1282  -2.2798   C.ar      1 RES1   0.0000
    28 C15      4.6330   9.5946   9.9935   C.2       1 RES1   0.0000
    29 C16      3.0327   9.0091   0.5821   C.3       1 RES1   0.0000
    30 H5       3.5478   9.8124   0.7571   H         1 RES1   0.0000
    31 H6       2.8508   8.5833   1.4341   H         1 RES1   0.0000
    32 C17      2.5759   8.8906  -2.3340   C.3       1 RES1   0.0000
    33 H7       3.0310   9.3304  -3.0695   H         1 RES1   0.0000
    34 H8       1.8544   8.3633  -2.7110   H         1 RES1   0.0000
    35 C18      1.3782  12.1943   7.5023   C.ar      1 RES1   0.0000
    36 H9       1.5098  12.0901   8.4175   H         1 RES1   0.0000
    37 C19      1.8551  11.5718   5.2413   C.ar      1 RES1   0.0000
    38 H10      2.3050  11.0372   4.6274   H         1 RES1   0.0000
    39 C20      0.2922  13.3544   5.6752   C.ar      1 RES1   0.0000
    40 C21      4.1744   6.8758   5.8113   C.3       1 RES1   0.0000
    41 H11      3.2915   6.6070   5.5136   H         1 RES1   0.0000
    42 H12      4.5587   6.1374   6.3097   H         1 RES1   0.0000
    43 C22      1.7112   9.4022  -0.0664   C.3       1 RES1   0.0000
    44 H13      1.1312   8.6271  -0.1278   H         1 RES1   0.0000
    45 H14      1.2657  10.0730   0.4750   H         1 RES1   0.0000
    46 C23      0.9911  12.5538   4.7898   C.ar      1 RES1   0.0000
    47 H15      0.8780  12.6776   3.8751   H         1 RES1   0.0000
    48 C24      5.6191   7.2682   8.3988   C.3       1 RES1   0.0000
    49 H16      5.1776   6.5865   8.9113   H         1 RES1   0.0000
    50 H17      6.2464   7.7324   8.9578   H         1 RES1   0.0000
    51 H18      6.0834   6.8648   7.6624   H         1 RES1   0.0000
    52 C25      0.5126  13.1526   7.0375   C.ar      1 RES1   0.0000
    53 H19      0.0594  13.6850   7.6500   H         1 RES1   0.0000
    54 C26      5.0277   7.1618   4.6227   C.3       1 RES1   0.0000
    55 H20      5.0858   6.3548   4.0873   H         1 RES1   0.0000
    56 H21      5.9228   7.3706   4.9318   H         1 RES1   0.0000
    57 C27      1.9792   9.9489  -1.4376   C.3       1 RES1   0.0000
    58 H22      2.5911  10.6990  -1.3720   H         1 RES1   0.0000
    59 H23      1.1504  10.2705  -1.8248   H         1 RES1   0.0000
    60 C28      4.3741  10.9468  10.6354   C.3       1 RES1   0.0000
    61 C29     -0.6605  14.4071   5.1816   C.3       1 RES1   0.0000
    62 H24     -0.2624  14.8799   4.4466   H         1 RES1   0.0000
    63 H25     -0.8533  15.0232   5.8916   H         1 RES1   0.0000
    64 H26     -1.4749  13.9903   4.8894   H         1 RES1   0.0000
    65 H27      3.5048   8.8945   6.3857   H         1 RES1   0.0000
    66 H28      5.6807   6.5882   1.7818   H         1 RES1   0.0000
    67 H29      6.6645   5.2794   0.7304   H         1 RES1   0.0000
    68 H30      5.0630   5.0498  -3.7075   H         1 RES1   0.0000
    69 H31      6.5374   3.3830  -2.7446   H         1 RES1   0.0000
    70 H32      7.3718   3.5410  -0.6419   H         1 RES1   0.0000
@<TRIPOS>BOND
     1     1    10    1
     2     2    11   ar
     3     3     4    2
     4     4    25    1
     5     5    28    2
     6     6    60    1
     7     7    18    1
     8     8    60    1
     9     9    10   ar
    10    10    14   ar
    11    11    14   ar
    12    12    60    1
    13    13     2   ar
    14    14    29    1
    15    15    13   ar
    16    16     9   ar
    17    17     3    1
    18    18    17    2
    19    19     1    1
    20    20    19    1
    21    21    19    1
    22    22    19    1
    23    23    22    1
    24    24    22    1
    25    25    35   ar
    26    26    16   ar
    27    27    15   ar
    28    28    17    1
    29    29    30    1
    30    31    29    1
    31    32    11    1
    32    33    32    1
    33    34    32    1
    34    35    36    1
    35    37    25   ar
    36    38    37    1
    37    39    46   ar
    38    40     7    1
    39    41    40    1
    40    42    40    1
    41    43    29    1
    42    44    43    1
    43    45    43    1
    44    46    37   ar
    45    47    46    1
    46    48    18    1
    47    49    48    1
    48    50    48    1
    49    51    48    1
    50    52    35   ar
    51    53    52    1
    52    54    22    1
    53    55    54    1
    54    56    54    1
    55    57    32    1
    56    58    57    1
    57    59    57    1
    58    60    28    1
    59    61    39    1
    60    62    61    1
    61    63    61    1
    62    64    61    1
    63    65     7    1
    64    66     1    1
    65    67    16    1
    66    68    15    1
    67    69    27    1
    68    70    26    1
    69     9    13   ar
    70    26    27   ar
    71    39    52   ar
    72    40    54    1
    73    43    57    1
@<TRIPOS>SUBSTRUCTURE
     1 RES1        1 GROUP             0 ****  ****    0  
@<TRIPOS>CRYSIN
    9.6290   24.6933   11.4045   90.0000  103.9730   90.0000   231     1
