@<TRIPOS>MOLECULE
02
    14    14     1     0     0
SMALL
NO_CHARGES
****
Generated from the CSD

@<TRIPOS>ATOM
     1 C12      2.0586  11.3762   6.5982   C.ar      1 RES2   0.0000
     2 C18      1.3782  12.1943   7.5023   C.ar      1 RES2   0.0000
     3 H9       1.5098  12.0901   8.4175   H         1 RES2   0.0000
     4 C19      1.8551  11.5718   5.2413   C.ar      1 RES2   0.0000
     5 H10      2.3050  11.0372   4.6274   H         1 RES2   0.0000
     6 C20      0.2922  13.3544   5.6752   C.ar      1 RES2   0.0000
     7 C23      0.9911  12.5538   4.7898   C.ar      1 RES2   0.0000
     8 H15      0.8780  12.6776   3.8751   H         1 RES2   0.0000
     9 C25      0.5126  13.1526   7.0375   C.ar      1 RES2   0.0000
    10 H19      0.0594  13.6850   7.6500   H         1 RES2   0.0000
    11 C29     -0.6605  14.4071   5.1816   C.3       1 RES2   0.0000
    12 H24     -0.2624  14.8799   4.4466   H         1 RES2   0.0000
    13 H25     -0.8533  15.0232   5.8916   H         1 RES2   0.0000
    14 H26     -1.4749  13.9903   4.8894   H         1 RES2   0.0000
@<TRIPOS>BOND
     1     1     2   ar
     2     2     3    1
     3     4     1   ar
     4     5     4    1
     5     6     7   ar
     6     7     4   ar
     7     8     7    1
     8     9     2   ar
     9    10     9    1
    10    11     6    1
    11    12    11    1
    12    13    11    1
    13    14    11    1
    14     6     9   ar
@<TRIPOS>SUBSTRUCTURE
     1 RES2        1 GROUP             0 ****  ****    0  
