@<TRIPOS>MOLECULE
02
    21    23     1     0     0
SMALL
NO_CHARGES
****
Generated from the CSD

@<TRIPOS>ATOM
     1 N3      -1.4289   9.3545  21.2371   N.pl3     1 RES2   0.0000
     2 H2      -1.8756   9.6737  21.8984   H         1 RES2   0.0000
     3 C1      -0.0761   8.0250  19.9988   C.ar      1 RES2   0.0000
     4 C3      -0.5984   9.0639  19.1552   C.ar      1 RES2   0.0000
     5 C4      -0.4262   9.4069  17.8097   C.ar      1 RES2   0.0000
     6 C6      -1.4174   9.8686  19.9608   C.ar      1 RES2   0.0000
     7 C7      -0.6109   8.2442  21.2854   C.ar      1 RES2   0.0000
     8 C10      0.7860   6.9465  19.8135   C.ar      1 RES2   0.0000
     9 H6       1.1574   6.7767  18.9773   H         1 RES2   0.0000
    10 C13     -1.0332  10.5348  17.3113   C.ar      1 RES2   0.0000
    11 H9      -0.9172  10.7760  16.4205   H         1 RES2   0.0000
    12 C18     -0.3121   7.4211  22.3572   C.ar      1 RES2   0.0000
    13 H16     -0.6740   7.5775  23.1992   H         1 RES2   0.0000
    14 C22      1.0803   6.1368  20.8880   C.ar      1 RES2   0.0000
    15 H22      1.6593   5.4176  20.7743   H         1 RES2   0.0000
    16 C23      0.5296   6.3758  22.1332   C.ar      1 RES2   0.0000
    17 H23      0.7394   5.8062  22.8377   H         1 RES2   0.0000
    18 C24     -1.8246  11.3143  18.1536   C.ar      1 RES2   0.0000
    19 H24     -2.2183  12.0815  17.8058   H         1 RES2   0.0000
    20 C25     -2.0488  11.0027  19.4671   C.ar      1 RES2   0.0000
    21 H25     -2.5993  11.5265  20.0038   H         1 RES2   0.0000
@<TRIPOS>BOND
     1     1     2    1
     2     3     4    1
     3     4     5   ar
     4     5    10   ar
     5     6     1    1
     6     7     1    1
     7     8     3   ar
     8     9     8    1
     9    10    11    1
    10    12     7   ar
    11    13    12    1
    12    14     8   ar
    13    15    14    1
    14    16    12   ar
    15    17    16    1
    16    18    10   ar
    17    19    18    1
    18    20     6   ar
    19    21    20    1
    20     3     7   ar
    21     4     6   ar
    22    14    16   ar
    23    18    20   ar
@<TRIPOS>SUBSTRUCTURE
     1 RES2        1 GROUP             0 ****  ****    0  
