@<TRIPOS>MOLECULE
01
    19    19     1     0     0
SMALL
NO_CHARGES
****
Generated from the CSD

@<TRIPOS>ATOM
     1 O2       7.7825   4.2164  17.2546   O.3       1 RES1   0.0000
     2 O4       7.6059   1.4851  12.4577   O.3       1 RES1   0.0000
     3 C2       6.7996   3.7855  15.1428   C.ar      1 RES1   0.0000
     4 C5       7.8509   3.5438  16.0511   C.ar      1 RES1   0.0000
     5 C8       6.7779   3.0578  13.9668   C.ar      1 RES1   0.0000
     6 H3       6.0793   3.1907  13.3675   H         1 RES1   0.0000
     7 C11      7.7672   2.1387  13.6567   C.ar      1 RES1   0.0000
     8 C17      8.8163   1.9488  14.5225   C.ar      1 RES1   0.0000
     9 H15      9.4992   1.3524  14.3122   H         1 RES1   0.0000
    10 C19      8.8430   2.6591  15.7117   C.ar      1 RES1   0.0000
    11 H17      9.5545   2.5318  16.2965   H         1 RES1   0.0000
    12 C26      8.5708   3.7100  18.3150   C.3       1 RES1   0.0000
    13 H26      9.4966   3.8976  18.1435   H         1 RES1   0.0000
    14 H27      8.4441   2.7607  18.3836   H         1 RES1   0.0000
    15 H28      8.3064   4.1277  19.1383   H         1 RES1   0.0000
    16 C27      8.5160   0.4478  12.1429   C.3       1 RES1   0.0000
    17 H29      8.2867   0.0692  11.2909   H         1 RES1   0.0000
    18 H30      8.4723  -0.2323  12.8187   H         1 RES1   0.0000
    19 H31      9.4067   0.8041  12.1062   H         1 RES1   0.0000
@<TRIPOS>BOND
     1     1     4    1
     2     2     7    1
     3     3     4   ar
     4     4    10   ar
     5     5     3   ar
     6     6     5    1
     7     7     5   ar
     8     8     7   ar
     9     9     8    1
    10    10     8   ar
    11    11    10    1
    12    12     1    1
    13    13    12    1
    14    14    12    1
    15    15    12    1
    16    16     2    1
    17    17    16    1
    18    18    16    1
    19    19    16    1
@<TRIPOS>SUBSTRUCTURE
     1 RES1        1 GROUP             0 ****  ****    0  
