@<TRIPOS>MOLECULE
BOTYIU
    65    69     1     0     0
SMALL
NO_CHARGES
****
Generated from the CSD

@<TRIPOS>ATOM
     1 O1       0.3786   8.5638  17.0833   O.3       1 RES1   0.0000
     2 O2       7.7825   4.2164  17.2546   O.3       1 RES1   0.0000
     3 N1       5.7756   4.7088  15.5196   N.3       1 RES1   0.0000
     4 O3       2.1207   8.3935  13.9631   O.3       1 RES1   0.0000
     5 H1       2.8356   8.0421  13.7660   H         1 RES1   0.0000
     6 O4       7.6059   1.4851  12.4577   O.3       1 RES1   0.0000
     7 N2       3.9101   6.9048  15.4914   N.3       1 RES1   0.0000
     8 N3      -1.4289   9.3545  21.2371   N.pl3     1 RES1   0.0000
     9 H2      -1.8756   9.6737  21.8984   H         1 RES1   0.0000
    10 C1      -0.0761   8.0250  19.9988   C.ar      1 RES1   0.0000
    11 C2       6.7996   3.7855  15.1428   C.ar      1 RES1   0.0000
    12 C3      -0.5984   9.0639  19.1552   C.ar      1 RES1   0.0000
    13 C4      -0.4262   9.4069  17.8097   C.ar      1 RES1   0.0000
    14 C5       7.8509   3.5438  16.0511   C.ar      1 RES1   0.0000
    15 C6      -1.4174   9.8686  19.9608   C.ar      1 RES1   0.0000
    16 C7      -0.6109   8.2442  21.2854   C.ar      1 RES1   0.0000
    17 C8       6.7779   3.0578  13.9668   C.ar      1 RES1   0.0000
    18 H3       6.0793   3.1907  13.3675   H         1 RES1   0.0000
    19 C9       0.7374   8.9668  15.7714   C.3       1 RES1   0.0000
    20 H4       1.1569   9.8412  15.7898   H         1 RES1   0.0000
    21 H5      -0.0496   9.0137  15.2067   H         1 RES1   0.0000
    22 C10      0.7860   6.9465  19.8135   C.ar      1 RES1   0.0000
    23 H6       1.1574   6.7767  18.9773   H         1 RES1   0.0000
    24 C11      7.7672   2.1387  13.6567   C.ar      1 RES1   0.0000
    25 C12      6.2213   6.1177  15.6312   C.3       1 RES1   0.0000
    26 H7       6.4396   6.4585  14.7502   H         1 RES1   0.0000
    27 H8       7.0228   6.1603  16.1751   H         1 RES1   0.0000
    28 C13     -1.0332  10.5348  17.3113   C.ar      1 RES1   0.0000
    29 H9      -0.9172  10.7760  16.4205   H         1 RES1   0.0000
    30 C14      4.5673   4.6660  14.7035   C.3       1 RES1   0.0000
    31 H10      4.2575   3.7502  14.6235   H         1 RES1   0.0000
    32 H11      4.7604   4.9999  13.8135   H         1 RES1   0.0000
    33 C15      3.4889   5.5215  15.3531   C.3       1 RES1   0.0000
    34 H12      2.6834   5.4835  14.8135   H         1 RES1   0.0000
    35 H13      3.2795   5.1607  16.2305   H         1 RES1   0.0000
    36 C16      1.7041   7.9349  15.2386   C.3       1 RES1   0.0000
    37 H14      1.2291   7.0839  15.1302   H         1 RES1   0.0000
    38 C17      8.8163   1.9488  14.5225   C.ar      1 RES1   0.0000
    39 H15      9.4992   1.3524  14.3122   H         1 RES1   0.0000
    40 C18     -0.3121   7.4211  22.3572   C.ar      1 RES1   0.0000
    41 H16     -0.6740   7.5775  23.1992   H         1 RES1   0.0000
    42 C19      8.8430   2.6591  15.7117   C.ar      1 RES1   0.0000
    43 H17      9.5545   2.5318  16.2965   H         1 RES1   0.0000
    44 C20      5.1523   6.9755  16.2476   C.3       1 RES1   0.0000
    45 H18      4.9911   6.6818  17.1593   H         1 RES1   0.0000
    46 H19      5.4582   7.8958  16.2780   H         1 RES1   0.0000
    47 C21      2.8780   7.7193  16.1445   C.3       1 RES1   0.0000
    48 H20      3.2536   8.5781  16.3941   H         1 RES1   0.0000
    49 H21      2.5823   7.2760  16.9535   H         1 RES1   0.0000
    50 C22      1.0803   6.1368  20.8880   C.ar      1 RES1   0.0000
    51 H22      1.6593   5.4176  20.7743   H         1 RES1   0.0000
    52 C23      0.5296   6.3758  22.1332   C.ar      1 RES1   0.0000
    53 H23      0.7394   5.8062  22.8377   H         1 RES1   0.0000
    54 C24     -1.8246  11.3143  18.1536   C.ar      1 RES1   0.0000
    55 H24     -2.2183  12.0815  17.8058   H         1 RES1   0.0000
    56 C25     -2.0488  11.0027  19.4671   C.ar      1 RES1   0.0000
    57 H25     -2.5993  11.5265  20.0038   H         1 RES1   0.0000
    58 C26      8.5708   3.7100  18.3150   C.3       1 RES1   0.0000
    59 H26      9.4966   3.8976  18.1435   H         1 RES1   0.0000
    60 H27      8.4441   2.7607  18.3836   H         1 RES1   0.0000
    61 H28      8.3064   4.1277  19.1383   H         1 RES1   0.0000
    62 C27      8.5160   0.4478  12.1429   C.3       1 RES1   0.0000
    63 H29      8.2867   0.0692  11.2909   H         1 RES1   0.0000
    64 H30      8.4723  -0.2323  12.8187   H         1 RES1   0.0000
    65 H31      9.4067   0.8041  12.1062   H         1 RES1   0.0000
@<TRIPOS>BOND
     1     1    13    1
     2     2    14    1
     3     3    11    1
     4     4     5    1
     5     6    24    1
     6     7    33    1
     7     8     9    1
     8    10    12    1
     9    11    14   ar
    10    12    13   ar
    11    13    28   ar
    12    14    42   ar
    13    15     8    1
    14    16     8    1
    15    17    11   ar
    16    18    17    1
    17    19     1    1
    18    20    19    1
    19    21    19    1
    20    22    10   ar
    21    23    22    1
    22    24    17   ar
    23    25     3    1
    24    26    25    1
    25    27    25    1
    26    28    29    1
    27    30     3    1
    28    31    30    1
    29    32    30    1
    30    33    30    1
    31    34    33    1
    32    35    33    1
    33    36     4    1
    34    37    36    1
    35    38    24   ar
    36    39    38    1
    37    40    16   ar
    38    41    40    1
    39    42    38   ar
    40    43    42    1
    41    44     7    1
    42    45    44    1
    43    46    44    1
    44    47     7    1
    45    48    47    1
    46    49    47    1
    47    50    22   ar
    48    51    50    1
    49    52    40   ar
    50    53    52    1
    51    54    28   ar
    52    55    54    1
    53    56    15   ar
    54    57    56    1
    55    58     2    1
    56    59    58    1
    57    60    58    1
    58    61    58    1
    59    62     6    1
    60    63    62    1
    61    64    62    1
    62    65    62    1
    63    10    16   ar
    64    12    15   ar
    65    19    36    1
    66    25    44    1
    67    36    47    1
    68    50    52   ar
    69    54    56   ar
@<TRIPOS>SUBSTRUCTURE
     1 RES1        1 GROUP             0 ****  ****    0  
@<TRIPOS>CRYSIN
    8.4876   11.1680   26.6000   90.0000   97.2600   90.0000    14     1
