@<TRIPOS>MOLECULE
01
    14    15     1     0     0
SMALL
NO_CHARGES
****
Generated from the CSD

@<TRIPOS>ATOM
     1 N1      -1.5930   1.0007   2.6461   N.ar      1 RES1   0.0000
     2 C1      -2.0162   0.1566   3.6182   C.ar      1 RES1   0.0000
     3 N2      -2.6227  -1.0309   3.4836   N.ar      1 RES1   0.0000
     4 C2      -2.7747  -1.3291   2.1879   C.ar      1 RES1   0.0000
     5 C3      -2.3207  -0.6084   1.0909   C.ar      1 RES1   0.0000
     6 C4      -1.7130   0.5961   1.3636   C.ar      1 RES1   0.0000
     7 N3      -1.2440   1.4373   0.4139   N.pl3     1 RES1   0.0000
     8 N4      -2.6245  -1.2635  -0.0879   N.2       1 RES1   0.0000
     9 C5      -3.2514  -2.3584   0.3091   C.2       1 RES1   0.0000
    10 N5      -3.3777  -2.4515   1.6818   N.2       1 RES1   0.0000
    11 H1      -1.8635   0.4534   4.5879   H         1 RES1   0.0000
    12 H2      -0.9773   2.3115   0.5636   H         1 RES1   0.0000
    13 H3      -1.2391   1.1035  -0.4848   H         1 RES1   0.0000
    14 H4      -3.5648  -2.9788  -0.2606   H         1 RES1   0.0000
@<TRIPOS>BOND
     1     1     2   ar
     2     2     3   ar
     3     3     4   ar
     4     4     5   ar
     5     5     6   ar
     6     6     1   ar
     7     7     6    1
     8     8     5    1
     9     9     8    2
    10    10     4    1
    11    11     2    1
    12    12     7    1
    13    13     7    1
    14    14     9    1
    15     9    10    1
@<TRIPOS>SUBSTRUCTURE
     1 RES1        1 GROUP             0 ****  ****    0  
