@<TRIPOS>MOLECULE
BUBFUZ
    54    57     1     0     0
SMALL
NO_CHARGES
****
Generated from the CSD

@<TRIPOS>ATOM
     1 N1      -1.5930   1.0007   2.6461   N.ar      1 RES1   0.0000
     2 C1      -2.0162   0.1566   3.6182   C.ar      1 RES1   0.0000
     3 N2      -2.6227  -1.0309   3.4836   N.ar      1 RES1   0.0000
     4 C2      -2.7747  -1.3291   2.1879   C.ar      1 RES1   0.0000
     5 C3      -2.3207  -0.6084   1.0909   C.ar      1 RES1   0.0000
     6 C4      -1.7130   0.5961   1.3636   C.ar      1 RES1   0.0000
     7 N3      -1.2440   1.4373   0.4139   N.pl3     1 RES1   0.0000
     8 N4      -2.6245  -1.2635  -0.0879   N.2       1 RES1   0.0000
     9 C5      -3.2514  -2.3584   0.3091   C.2       1 RES1   0.0000
    10 N5      -3.3777  -2.4515   1.6818   N.pl3     1 RES1   0.0000
    11 C6      -4.0789  -3.5261   2.4182   C.3       1 RES1   0.0000
    12 C7      -3.1486  -4.6414   2.8000   C.3       1 RES1   0.0000
    13 C8      -2.5867  -5.3673   1.5879   C.2       1 RES1   0.0000
    14 O1      -3.3156  -5.7235   0.6630   O.2       1 RES1   0.0000
    15 N6       1.5389  -8.0402   4.1788   N.pl3     1 RES1   0.0000
    16 C9       1.3573  -6.9442   3.3454   C.2       1 RES1   0.0000
    17 C10      1.1025  -7.3904   2.0606   C.2       1 RES1   0.0000
    18 C11      0.9411  -9.7809   1.1273   C.ar      1 RES1   0.0000
    19 C12      1.0248 -11.1183   1.5151   C.ar      1 RES1   0.0000
    20 C13      1.2891 -11.4689   2.8303   C.ar      1 RES1   0.0000
    21 C14      1.4644 -10.5424   3.8303   C.ar      1 RES1   0.0000
    22 C15      1.3911  -9.1950   3.4242   C.ar      1 RES1   0.0000
    23 C16      1.0980  -8.7978   2.0788   C.ar      1 RES1   0.0000
    24 C17      0.8835  -6.4699   0.8788   C.3       1 RES1   0.0000
    25 C18     -0.6096  -6.3323   0.5576   C.3       1 RES1   0.0000
    26 C19     -0.7358  -5.5425  -0.8000   C.2       1 RES1   0.0000
    27 C20     -0.9904  -5.8784  -3.1212   C.3       1 RES1   0.0000
    28 C21     -1.1487  -7.0432  -4.0303   C.3       1 RES1   0.0000
    29 N7      -1.2692  -5.5834   1.6115   N.am      1 RES1   0.0000
    30 O2      -0.5866  -4.3726  -0.9067   O.2       1 RES1   0.0000
    31 O3      -0.9331  -6.4467  -1.7527   O.3       1 RES1   0.0000
    32 H1      -1.8635   0.4534   4.5879   H         1 RES1   0.0000
    33 H2      -0.9773   2.3115   0.5636   H         1 RES1   0.0000
    34 H3      -1.2391   1.1035  -0.4848   H         1 RES1   0.0000
    35 H4      -3.5648  -2.9788  -0.2606   H         1 RES1   0.0000
    36 H5      -4.8187  -3.7478   1.8485   H         1 RES1   0.0000
    37 H6      -4.6226  -2.9747   3.2848   H         1 RES1   0.0000
    38 H7      -3.6876  -5.2511   3.2667   H         1 RES1   0.0000
    39 H8      -2.3279  -4.2222   3.4788   H         1 RES1   0.0000
    40 H9      -0.8315  -5.2644   2.2000   H         1 RES1   0.0000
    41 H10     -1.0836  -7.3349   0.3939   H         1 RES1   0.0000
    42 H11     -1.8819  -5.2365  -3.1454   H         1 RES1   0.0000
    43 H12     -0.1435  -5.4741  -3.2182   H         1 RES1   0.0000
    44 H13     -1.1430  -6.6913  -4.8727   H         1 RES1   0.0000
    45 H14     -2.0044  -7.5250  -4.0242   H         1 RES1   0.0000
    46 H15     -0.2581  -7.8904  -3.9030   H         1 RES1   0.0000
    47 H16      1.2494  -7.0019   0.1394   H         1 RES1   0.0000
    48 H17      1.2645  -5.5014   0.9758   H         1 RES1   0.0000
    49 H18      1.5323  -5.9978   3.7030   H         1 RES1   0.0000
    50 H19      1.8066  -8.0613   4.8606   H         1 RES1   0.0000
    51 H20      1.6292 -10.7674   4.8000   H         1 RES1   0.0000
    52 H21      0.9118 -11.7673   0.8606   H         1 RES1   0.0000
    53 H22      0.9023  -9.7031   0.2242   H         1 RES1   0.0000
    54 H23      1.1967 -12.3977   3.0121   H         1 RES1   0.0000
@<TRIPOS>BOND
     1     1     2   ar
     2     2     3   ar
     3     3     4   ar
     4     4     5   ar
     5     5     6   ar
     6     6     1   ar
     7     7     6    1
     8     8     5    1
     9     9     8    2
    10    10     4    1
    11    11    10    1
    12    12    11    1
    13    13    12    1
    14    14    13    2
    15    15    16    1
    16    16    17    2
    17    17    23    1
    18    18    19   ar
    19    19    20   ar
    20    20    21   ar
    21    21    22   ar
    22    22    15    1
    23    23    18   ar
    24    24    17    1
    25    25    24    1
    26    26    25    1
    27    27    28    1
    28    28    44    1
    29    29    13   am
    30    30    26    2
    31    31    26    1
    32    32     2    1
    33    33     7    1
    34    34     7    1
    35    35     9    1
    36    36    11    1
    37    37    11    1
    38    38    12    1
    39    39    12    1
    40    40    29    1
    41    41    25    1
    42    42    27    1
    43    43    27    1
    44    45    28    1
    45    46    28    1
    46    47    24    1
    47    48    24    1
    48    49    16    1
    49    50    15    1
    50    51    21    1
    51    52    19    1
    52    53    18    1
    53    54    20    1
    54     9    10    1
    55    22    23   ar
    56    25    29    1
    57    27    31    1
@<TRIPOS>SUBSTRUCTURE
     1 RES1        1 GROUP             0 ****  ****    0  
@<TRIPOS>CRYSIN
    7.7340   22.4000    6.7980  112.7900  104.1000   88.6900     2     1
