@<TRIPOS>MOLECULE
02
    15    16     1     0     0
SMALL
NO_CHARGES
****
Generated from the CSD

@<TRIPOS>ATOM
     1 N6       1.5389  -8.0402   4.1788   N.pl3     1 RES2   0.0000
     2 C9       1.3573  -6.9442   3.3454   C.2       1 RES2   0.0000
     3 C10      1.1025  -7.3904   2.0606   C.2       1 RES2   0.0000
     4 C11      0.9411  -9.7809   1.1273   C.ar      1 RES2   0.0000
     5 C12      1.0248 -11.1183   1.5151   C.ar      1 RES2   0.0000
     6 C13      1.2891 -11.4689   2.8303   C.ar      1 RES2   0.0000
     7 C14      1.4644 -10.5424   3.8303   C.ar      1 RES2   0.0000
     8 C15      1.3911  -9.1950   3.4242   C.ar      1 RES2   0.0000
     9 C16      1.0980  -8.7978   2.0788   C.ar      1 RES2   0.0000
    10 H18      1.5323  -5.9978   3.7030   H         1 RES2   0.0000
    11 H19      1.8066  -8.0613   4.8606   H         1 RES2   0.0000
    12 H20      1.6292 -10.7674   4.8000   H         1 RES2   0.0000
    13 H21      0.9118 -11.7673   0.8606   H         1 RES2   0.0000
    14 H22      0.9023  -9.7031   0.2242   H         1 RES2   0.0000
    15 H23      1.1967 -12.3977   3.0121   H         1 RES2   0.0000
@<TRIPOS>BOND
     1     1     2    1
     2     2     3    2
     3     3     9    1
     4     4     5   ar
     5     5     6   ar
     6     6     7   ar
     7     7     8   ar
     8     8     1    1
     9     9     4   ar
    10    10     2    1
    11    11     1    1
    12    12     7    1
    13    13     5    1
    14    14     4    1
    15    15     6    1
    16     8     9   ar
@<TRIPOS>SUBSTRUCTURE
     1 RES2        1 GROUP             0 ****  ****    0  
