@<TRIPOS>MOLECULE
02
    17    17     1     0     0
SMALL
NO_CHARGES
****
Generated from the CSD

@<TRIPOS>ATOM
     1 O5      11.4674   3.0362   8.1243   O.3       1 RES2   0.0000
     2 O6      14.3737  -0.4170   9.5299   O.3       1 RES2   0.0000
     3 N4      12.9993   2.1820   6.7586   N.ar      1 RES2   0.0000
     4 N5      14.5187   0.4557   7.4084   N.ar      1 RES2   0.0000
     5 C12     13.9955   1.3308   6.5490   C.ar      1 RES2   0.0000
     6 C13     12.4467   2.1396   7.9840   C.ar      1 RES2   0.0000
     7 C14     12.8712   1.2647   8.9615   C.ar      1 RES2   0.0000
     8 H13     12.4656   1.2258   9.8202   H         1 RES2   0.0000
     9 C15     13.9354   0.4413   8.6039   C.ar      1 RES2   0.0000
    10 C16     10.8038   3.0799   9.3984   C.3       1 RES2   0.0000
    11 H14     10.3261   2.2380   9.5474   H         1 RES2   0.0000
    12 H15     10.1659   3.8236   9.4087   H         1 RES2   0.0000
    13 H16     11.4668   3.2098  10.1086   H         1 RES2   0.0000
    14 C17     15.4948  -1.2508   9.1665   C.3       1 RES2   0.0000
    15 H17     15.2651  -1.7810   8.3750   H         1 RES2   0.0000
    16 H18     15.7103  -1.8522   9.9107   H         1 RES2   0.0000
    17 H19     16.2704  -0.6870   8.9674   H         1 RES2   0.0000
@<TRIPOS>BOND
     1     1     6    1
     2     2     9    1
     3     3     5   ar
     4     4     5   ar
     5     6     3   ar
     6     7     6   ar
     7     8     7    1
     8     9     4   ar
     9    10     1    1
    10    11    10    1
    11    12    10    1
    12    13    10    1
    13    14     2    1
    14    15    14    1
    15    16    14    1
    16    17    14    1
    17     7     9   ar
@<TRIPOS>SUBSTRUCTURE
     1 RES2        1 GROUP             0 ****  ****    0  
