@<TRIPOS>MOLECULE
01
    20    21     1     0     0
SMALL
NO_CHARGES
****
Generated from the CSD

@<TRIPOS>ATOM
     1 O1      13.0860   2.4178  -0.5363   O.2       1 RES1   0.0000
     2 C1      12.9557   0.8207  -2.8464   C.3       1 RES1   0.0000
     3 H4      13.7563   1.3874  -2.7127   H         1 RES1   0.0000
     4 H5      13.1194  -0.0183  -3.3472   H         1 RES1   0.0000
     5 C2      11.6567   1.5010  -3.0505   C.3       1 RES1   0.0000
     6 H6      11.0113   1.0844  -3.6746   H         1 RES1   0.0000
     7 H7      11.6481   2.4910  -3.0401   H         1 RES1   0.0000
     8 C3      11.9357   0.7895  -1.7540   C.3       1 RES1   0.0000
     9 H8      11.4610  -0.0789  -1.6073   H         1 RES1   0.0000
    10 C4      12.1318   1.6464  -0.5641   C.2       1 RES1   0.0000
    11 C5      11.1540   1.5763   0.5494   C.ar      1 RES1   0.0000
    12 C6      10.0455   0.7264   0.4660   C.ar      1 RES1   0.0000
    13 H9       9.9240   0.2069  -0.3212   H         1 RES1   0.0000
    14 C7       9.1245   0.6148   1.4846   C.ar      1 RES1   0.0000
    15 H10      8.3859   0.0221   1.4047   H         1 RES1   0.0000
    16 C8       9.2912   1.3778   2.6220   C.ar      1 RES1   0.0000
    17 H11      8.6641   1.3028   3.3316   H         1 RES1   0.0000
    18 C9      10.3586   2.2486   2.7453   C.ar      1 RES1   0.0000
    19 H12     10.4501   2.7768   3.5296   H         1 RES1   0.0000
    20 C10     11.2979   2.3526   1.7246   C.ar      1 RES1   0.0000
@<TRIPOS>BOND
     1     1    10    2
     2     2     3    1
     3     4     2    1
     4     5     2    1
     5     6     5    1
     6     7     5    1
     7     8     2    1
     8     9     8    1
     9    10     8    1
    10    11    10    1
    11    12    11   ar
    12    13    12    1
    13    14    12   ar
    14    15    14    1
    15    16    14   ar
    16    17    16    1
    17    18    16   ar
    18    19    18    1
    19     5     8    1
    20    11    20   ar
    21    18    20   ar
@<TRIPOS>SUBSTRUCTURE
     1 RES1        1 GROUP             0 ****  ****    0  
