@<TRIPOS>MOLECULE
BUTCIE
    48    50     1     0     0
SMALL
NO_CHARGES
****
Generated from the CSD

@<TRIPOS>ATOM
     1 S1      12.9214   4.0197   3.1048   S.o2      1 RES1   0.0000
     2 O1      13.0860   2.4178  -0.5363   O.2       1 RES1   0.0000
     3 O2      14.1090   4.6769   2.6751   O.2       1 RES1   0.0000
     4 O3      11.8654   4.7709   3.6947   O.2       1 RES1   0.0000
     5 O4      14.9271   1.8205   3.1176   O.2       1 RES1   0.0000
     6 O5      11.4674   3.0362   8.1243   O.3       1 RES1   0.0000
     7 O6      14.3737  -0.4170   9.5299   O.3       1 RES1   0.0000
     8 N1      12.4051   3.2141   1.8144   N.pl3     1 RES1   0.0000
     9 H1      12.8714   3.3252   1.0757   H         1 RES1   0.0000
    10 N2      13.2788   2.9147   4.2631   N.am      1 RES1   0.0000
    11 H2      12.7887   2.9000   4.9935   H         1 RES1   0.0000
    12 N3      14.5939   1.3014   5.2958   N.am      1 RES1   0.0000
    13 H3      15.2662   0.7380   5.2243   H         1 RES1   0.0000
    14 N4      12.9993   2.1820   6.7586   N.ar      1 RES1   0.0000
    15 N5      14.5187   0.4557   7.4084   N.ar      1 RES1   0.0000
    16 C1      12.9557   0.8207  -2.8464   C.3       1 RES1   0.0000
    17 H4      13.7563   1.3874  -2.7127   H         1 RES1   0.0000
    18 H5      13.1194  -0.0183  -3.3472   H         1 RES1   0.0000
    19 C2      11.6567   1.5010  -3.0505   C.3       1 RES1   0.0000
    20 H6      11.0113   1.0844  -3.6746   H         1 RES1   0.0000
    21 H7      11.6481   2.4910  -3.0401   H         1 RES1   0.0000
    22 C3      11.9357   0.7895  -1.7540   C.3       1 RES1   0.0000
    23 H8      11.4610  -0.0789  -1.6073   H         1 RES1   0.0000
    24 C4      12.1318   1.6464  -0.5641   C.2       1 RES1   0.0000
    25 C5      11.1540   1.5763   0.5494   C.ar      1 RES1   0.0000
    26 C6      10.0455   0.7264   0.4660   C.ar      1 RES1   0.0000
    27 H9       9.9240   0.2069  -0.3212   H         1 RES1   0.0000
    28 C7       9.1245   0.6148   1.4846   C.ar      1 RES1   0.0000
    29 H10      8.3859   0.0221   1.4047   H         1 RES1   0.0000
    30 C8       9.2912   1.3778   2.6220   C.ar      1 RES1   0.0000
    31 H11      8.6641   1.3028   3.3316   H         1 RES1   0.0000
    32 C9      10.3586   2.2486   2.7453   C.ar      1 RES1   0.0000
    33 H12     10.4501   2.7768   3.5296   H         1 RES1   0.0000
    34 C10     11.2979   2.3526   1.7246   C.ar      1 RES1   0.0000
    35 C11     14.3115   2.0069   4.1462   C.2       1 RES1   0.0000
    36 C12     13.9955   1.3308   6.5490   C.ar      1 RES1   0.0000
    37 C13     12.4467   2.1396   7.9840   C.ar      1 RES1   0.0000
    38 C14     12.8712   1.2647   8.9615   C.ar      1 RES1   0.0000
    39 H13     12.4656   1.2258   9.8202   H         1 RES1   0.0000
    40 C15     13.9354   0.4413   8.6039   C.ar      1 RES1   0.0000
    41 C16     10.8038   3.0799   9.3984   C.3       1 RES1   0.0000
    42 H14     10.3261   2.2380   9.5474   H         1 RES1   0.0000
    43 H15     10.1659   3.8236   9.4087   H         1 RES1   0.0000
    44 H16     11.4668   3.2098  10.1086   H         1 RES1   0.0000
    45 C17     15.4948  -1.2508   9.1665   C.3       1 RES1   0.0000
    46 H17     15.2651  -1.7810   8.3750   H         1 RES1   0.0000
    47 H18     15.7103  -1.8522   9.9107   H         1 RES1   0.0000
    48 H19     16.2704  -0.6870   8.9674   H         1 RES1   0.0000
@<TRIPOS>BOND
     1     1     3    2
     2     2    24    2
     3     4     1    2
     4     5    35    2
     5     6    37    1
     6     7    40    1
     7     8     1    1
     8     9     8    1
     9    10     1    1
    10    11    10    1
    11    12    13    1
    12    14    36   ar
    13    15    36   ar
    14    16    17    1
    15    18    16    1
    16    19    16    1
    17    20    19    1
    18    21    19    1
    19    22    16    1
    20    23    22    1
    21    24    22    1
    22    25    24    1
    23    26    25   ar
    24    27    26    1
    25    28    26   ar
    26    29    28    1
    27    30    28   ar
    28    31    30    1
    29    32    30   ar
    30    33    32    1
    31    34     8    1
    32    35    10   am
    33    36    12    1
    34    37    14   ar
    35    38    37   ar
    36    39    38    1
    37    40    15   ar
    38    41     6    1
    39    42    41    1
    40    43    41    1
    41    44    41    1
    42    45     7    1
    43    46    45    1
    44    47    45    1
    45    48    45    1
    46    12    35   am
    47    19    22    1
    48    25    34   ar
    49    32    34   ar
    50    38    40   ar
@<TRIPOS>SUBSTRUCTURE
     1 RES1        1 GROUP             0 ****  ****    0  
@<TRIPOS>CRYSIN
   12.7019    9.6216   15.6213   90.0000   93.6194   90.0000   231     1
