@<TRIPOS>MOLECULE
02
    21    22     1     0     0
SMALL
NO_CHARGES
****
Generated from the CSD

@<TRIPOS>ATOM
     1 O7       3.1360  -0.6342   0.3787   O.3       1 RES2   0.0000
     2 C16      5.7004   3.3513   1.6111   C.ar      1 RES2   0.0000
     3 C17      6.9152   3.9535   1.7874   C.ar      1 RES2   0.0000
     4 C18      8.0925   3.1913   1.6853   C.ar      1 RES2   0.0000
     5 C19      8.0165   1.8560   1.4221   C.ar      1 RES2   0.0000
     6 C20      6.7686   1.2422   1.2087   C.ar      1 RES2   0.0000
     7 C21      6.6733  -0.1396   0.8747   C.ar      1 RES2   0.0000
     8 C22      5.4510  -0.6895   0.6318   C.ar      1 RES2   0.0000
     9 C23      4.2791   0.0669   0.6807   C.ar      1 RES2   0.0000
    10 C24      4.3347   1.3847   1.0139   C.ar      1 RES2   0.0000
    11 C25      5.5934   1.9840   1.2813   C.ar      1 RES2   0.0000
    12 C26      1.9244   0.0669   0.3703   C.3       1 RES2   0.0000
    13 H26      4.9555   3.8400   1.5942   H         1 RES2   0.0000
    14 H27      7.0105   4.9746   1.9738   H         1 RES2   0.0000
    15 H28      8.8514   1.3091   1.4593   H         1 RES2   0.0000
    16 H29      7.5991  -0.7855   1.3159   H         1 RES2   0.0000
    17 H30      5.4585  -1.5709   0.4977   H         1 RES2   0.0000
    18 H31      3.5320   1.8909   1.0291   H         1 RES2   0.0000
    19 H32      1.7339   0.6109   1.0797   H         1 RES2   0.0000
    20 H33      2.0122   0.9018  -0.2615   H         1 RES2   0.0000
    21 H34      1.1666  -0.6400   0.0759   H         1 RES2   0.0000
@<TRIPOS>BOND
     1     1     9    1
     2     2     3   ar
     3     3     4   ar
     4     5     4   ar
     5     6     5   ar
     6     7     6   ar
     7     8     7   ar
     8     9     8   ar
     9    10     9   ar
    10    11     2   ar
    11    12     1    1
    12    13     2    1
    13    14     3    1
    14    15     5    1
    15    16     7    1
    16    17     8    1
    17    18    10    1
    18    19    12    1
    19    20    12    1
    20    21    12    1
    21     6    11   ar
    22    10    11   ar
@<TRIPOS>SUBSTRUCTURE
     1 RES2        1 GROUP             0 ****  ****    0  
