@<TRIPOS>MOLECULE
01
    23    24     1     0     0
SMALL
NO_CHARGES
****
Generated from the CSD

@<TRIPOS>ATOM
     1 O6       8.2435  10.3331   0.0844   O.2       1 RES1   0.0000
     2 C2       9.1768   8.7331   1.6651   C.3       1 RES1   0.0000
     3 C3       8.4757  10.0073   1.2146   C.2       1 RES1   0.0000
     4 C4       8.1878  10.8189   2.4748   C.3       1 RES1   0.0000
     5 C5       8.8129   9.9258   3.5807   C.3       1 RES1   0.0000
     6 C6       7.9149   8.7186   3.7780   C.3       1 RES1   0.0000
     7 C7       8.0979   7.9157   2.4352   C.3       1 RES1   0.0000
     8 C8      10.0437   9.3324   2.8257   C.3       1 RES1   0.0000
     9 C9      10.7790   8.2880   3.6186   C.3       1 RES1   0.0000
    10 C10     11.0605  10.3739   2.3230   C.3       1 RES1   0.0000
    11 H3       7.1175  10.9091   2.8089   H         1 RES1   0.0000
    12 H4       8.5410  11.9855   2.4040   H         1 RES1   0.0000
    13 H5       9.0012  10.6473   4.2934   H         1 RES1   0.0000
    14 H6       8.1878   8.0873   4.7067   H         1 RES1   0.0000
    15 H7       7.0105   8.9600   3.8295   H         1 RES1   0.0000
    16 H8       8.3376   6.9237   2.5221   H         1 RES1   0.0000
    17 H9       7.2138   7.8546   1.9991   H         1 RES1   0.0000
    18 H10     11.3131   8.7564   4.4790   H         1 RES1   0.0000
    19 H11     10.3498   7.5346   3.8970   H         1 RES1   0.0000
    20 H12     11.4736   8.0582   3.2728   H         1 RES1   0.0000
    21 H13     11.7840   9.8618   1.8473   H         1 RES1   0.0000
    22 H14     11.3666  10.8509   3.1631   H         1 RES1   0.0000
    23 H15     10.7244  11.1709   1.7629   H         1 RES1   0.0000
@<TRIPOS>BOND
     1     1     3    2
     2     3     2    1
     3     4     3    1
     4     5     4    1
     5     6     5    1
     6     7     2    1
     7     8     2    1
     8     9     8    1
     9    10     8    1
    10    11     4    1
    11    12     4    1
    12    13     5    1
    13    14     6    1
    14    15     6    1
    15    16     7    1
    16    17     7    1
    17    18     9    1
    18    19     9    1
    19    20     9    1
    20    21    10    1
    21    22    10    1
    22    23    10    1
    23     5     8    1
    24     6     7    1
@<TRIPOS>SUBSTRUCTURE
     1 RES1        1 GROUP             0 ****  ****    0  
