@<TRIPOS>MOLECULE
CAGYAK
    68    71     1     0     0
SMALL
NO_CHARGES
****
Generated from the CSD

@<TRIPOS>ATOM
     1 S1       9.0816   6.9513  -0.5450   S.o2      1 RES1   0.0000
     2 O1       7.7832   7.4793  -0.8334   O.2       1 RES1   0.0000
     3 O2       9.9784   6.6560  -1.6204   O.2       1 RES1   0.0000
     4 O3       8.7850   5.6204   0.2606   O.3       1 RES1   0.0000
     5 O4      10.4065   2.8916   2.0801   O.3       1 RES1   0.0000
     6 O5       9.4486   4.9222   2.7734   O.3       1 RES1   0.0000
     7 O6       8.2435  10.3331   0.0844   O.2       1 RES1   0.0000
     8 O7       3.1360  -0.6342   0.3787   O.3       1 RES1   0.0000
     9 C1       9.9816   8.0088   0.5921   C.3       1 RES1   0.0000
    10 C2       9.1768   8.7331   1.6651   C.3       1 RES1   0.0000
    11 C3       8.4757  10.0073   1.2146   C.2       1 RES1   0.0000
    12 C4       8.1878  10.8189   2.4748   C.3       1 RES1   0.0000
    13 C5       8.8129   9.9258   3.5807   C.3       1 RES1   0.0000
    14 C6       7.9149   8.7186   3.7780   C.3       1 RES1   0.0000
    15 C7       8.0979   7.9157   2.4352   C.3       1 RES1   0.0000
    16 C8      10.0437   9.3324   2.8257   C.3       1 RES1   0.0000
    17 C9      10.7790   8.2880   3.6186   C.3       1 RES1   0.0000
    18 C10     11.0605  10.3739   2.3230   C.3       1 RES1   0.0000
    19 C11      9.9260   3.6771  -0.7026   C.3       1 RES1   0.0000
    20 C12      9.8446   4.6226   0.4808   C.3       1 RES1   0.0000
    21 C13      9.4465   3.8953   1.7958   C.3       1 RES1   0.0000
    22 C14     11.7358   3.3455   2.3534   C.3       1 RES1   0.0000
    23 C15      9.1339   4.4655   4.1053   C.3       1 RES1   0.0000
    24 C16      5.7004   3.3513   1.6111   C.ar      1 RES1   0.0000
    25 C17      6.9152   3.9535   1.7874   C.ar      1 RES1   0.0000
    26 C18      8.0925   3.1913   1.6853   C.ar      1 RES1   0.0000
    27 C19      8.0165   1.8560   1.4221   C.ar      1 RES1   0.0000
    28 C20      6.7686   1.2422   1.2087   C.ar      1 RES1   0.0000
    29 C21      6.6733  -0.1396   0.8747   C.ar      1 RES1   0.0000
    30 C22      5.4510  -0.6895   0.6318   C.ar      1 RES1   0.0000
    31 C23      4.2791   0.0669   0.6807   C.ar      1 RES1   0.0000
    32 C24      4.3347   1.3847   1.0139   C.ar      1 RES1   0.0000
    33 C25      5.5934   1.9840   1.2813   C.ar      1 RES1   0.0000
    34 C26      1.9244   0.0669   0.3703   C.3       1 RES1   0.0000
    35 H1      10.7351   7.3891   1.1472   H         1 RES1   0.0000
    36 H2      10.3605   8.7273   0.0422   H         1 RES1   0.0000
    37 H3       7.1175  10.9091   2.8089   H         1 RES1   0.0000
    38 H4       8.5410  11.9855   2.4040   H         1 RES1   0.0000
    39 H5       9.0012  10.6473   4.2934   H         1 RES1   0.0000
    40 H6       8.1878   8.0873   4.7067   H         1 RES1   0.0000
    41 H7       7.0105   8.9600   3.8295   H         1 RES1   0.0000
    42 H8       8.3376   6.9237   2.5221   H         1 RES1   0.0000
    43 H9       7.2138   7.8546   1.9991   H         1 RES1   0.0000
    44 H10     11.3131   8.7564   4.4790   H         1 RES1   0.0000
    45 H11     10.3498   7.5346   3.8970   H         1 RES1   0.0000
    46 H12     11.4736   8.0582   3.2728   H         1 RES1   0.0000
    47 H13     11.7840   9.8618   1.8473   H         1 RES1   0.0000
    48 H14     11.3666  10.8509   3.1631   H         1 RES1   0.0000
    49 H15     10.7244  11.1709   1.7629   H         1 RES1   0.0000
    50 H16      8.9905   3.1418  -0.7760   H         1 RES1   0.0000
    51 H17     10.5210   2.8218  -0.4724   H         1 RES1   0.0000
    52 H18     10.2214   4.1309  -1.4508   H         1 RES1   0.0000
    53 H19     10.6923   5.0909   0.5567   H         1 RES1   0.0000
    54 H20     12.2121   2.4727   2.9691   H         1 RES1   0.0000
    55 H21     11.8161   4.2473   2.6317   H         1 RES1   0.0000
    56 H22     12.2121   3.4036   1.6280   H         1 RES1   0.0000
    57 H23      9.9110   4.0146   4.3609   H         1 RES1   0.0000
    58 H24      8.4554   3.5782   4.1753   H         1 RES1   0.0000
    59 H25      9.4079   5.1491   4.5886   H         1 RES1   0.0000
    60 H26      4.9555   3.8400   1.5942   H         1 RES1   0.0000
    61 H27      7.0105   4.9746   1.9738   H         1 RES1   0.0000
    62 H28      8.8514   1.3091   1.4593   H         1 RES1   0.0000
    63 H29      7.5991  -0.7855   1.3159   H         1 RES1   0.0000
    64 H30      5.4585  -1.5709   0.4977   H         1 RES1   0.0000
    65 H31      3.5320   1.8909   1.0291   H         1 RES1   0.0000
    66 H32      1.7339   0.6109   1.0797   H         1 RES1   0.0000
    67 H33      2.0122   0.9018  -0.2615   H         1 RES1   0.0000
    68 H34      1.1666  -0.6400   0.0759   H         1 RES1   0.0000
@<TRIPOS>BOND
     1     1     2    2
     2     3     1    2
     3     4     1    1
     4     5    21    1
     5     6    21    1
     6     7    11    2
     7     8    31    1
     8     9     1    1
     9    10     9    1
    10    11    10    1
    11    12    11    1
    12    13    12    1
    13    14    13    1
    14    15    10    1
    15    16    10    1
    16    17    16    1
    17    18    16    1
    18    19    20    1
    19    20     4    1
    20    21    20    1
    21    22     5    1
    22    23     6    1
    23    24    25   ar
    24    25    26   ar
    25    26    21    1
    26    27    26   ar
    27    28    27   ar
    28    29    28   ar
    29    30    29   ar
    30    31    30   ar
    31    32    31   ar
    32    33    24   ar
    33    34     8    1
    34    35     9    1
    35    36     9    1
    36    37    12    1
    37    38    12    1
    38    39    13    1
    39    40    14    1
    40    41    14    1
    41    42    15    1
    42    43    15    1
    43    44    17    1
    44    45    17    1
    45    46    17    1
    46    47    18    1
    47    48    18    1
    48    49    18    1
    49    50    19    1
    50    51    19    1
    51    52    19    1
    52    53    20    1
    53    54    22    1
    54    55    22    1
    55    56    22    1
    56    57    23    1
    57    58    23    1
    58    59    23    1
    59    60    24    1
    60    61    25    1
    61    62    27    1
    62    63    29    1
    63    64    30    1
    64    65    32    1
    65    66    34    1
    66    67    34    1
    67    68    34    1
    68    13    16    1
    69    14    15    1
    70    28    33   ar
    71    32    33   ar
@<TRIPOS>SUBSTRUCTURE
     1 RES1        1 GROUP             0 ****  ****    0  
@<TRIPOS>CRYSIN
   10.7030   29.0910    8.4350   90.0000   90.0000   90.0000    19     1
