@<TRIPOS>MOLECULE
02
    11    11     1     0     0
SMALL
NO_CHARGES
****
Generated from the CSD

@<TRIPOS>ATOM
     1 C23      0.2418   4.0618   2.8427   C.ar      1 RES2   0.0000
     2 C24      1.2666   3.2000   3.2344   C.ar      1 RES2   0.0000
     3 C25      2.3147   3.6996   4.1244   C.ar      1 RES2   0.0000
     4 C26      2.1673   4.8819   4.4384   C.ar      1 RES2   0.0000
     5 C27      1.3326   5.7229   4.1417   C.ar      1 RES2   0.0000
     6 C28      0.3307   5.3274   3.3244   C.ar      1 RES2   0.0000
     7 H28      1.2856   2.1787   2.8866   H         1 RES2   0.0000
     8 H36      3.1383   3.0932   4.4721   H         1 RES2   0.0000
     9 H37      2.9272   5.2497   5.1115   H         1 RES2   0.0000
    10 H38      1.3925   6.7345   4.5141   H         1 RES2   0.0000
    11 H39     -0.4272   6.0448   3.0462   H         1 RES2   0.0000
@<TRIPOS>BOND
     1     2     1   ar
     2     3     2   ar
     3     4     3   ar
     4     5     4   ar
     5     6     1   ar
     6     7     2    1
     7     8     3    1
     8     9     4    1
     9    10     5    1
    10    11     6    1
    11     5     6   ar
@<TRIPOS>SUBSTRUCTURE
     1 RES2        1 GROUP             0 ****  ****    0  
