@<TRIPOS>MOLECULE
CALFOK
    81    82     1     0     0
SMALL
NO_CHARGES
****
Generated from the CSD

@<TRIPOS>ATOM
     1 C1      -5.7313   2.8781   7.3087   C.2       1 RES1   0.0000
     2 C2      -5.1631   1.5639   7.6513   C.3       1 RES1   0.0000
     3 C3      -6.1097   0.6966   8.5556   C.3       1 RES1   0.0000
     4 C4      -5.1213  -0.2290   9.2461   C.3       1 RES1   0.0000
     5 C5      -3.8710   0.5717   9.4915   C.3       1 RES1   0.0000
     6 C6      -5.7555   5.8186   6.7338   C.2       1 RES1   0.0000
     7 C7      -6.2021   5.1817   8.1035   C.3       1 RES1   0.0000
     8 C8      -7.7736   5.0929   8.1198   C.3       1 RES1   0.0000
     9 C9      -5.7033   6.0518   9.2062   C.3       1 RES1   0.0000
    10 C10     -3.9533   5.4093   3.9566   C.2       1 RES1   0.0000
    11 C11     -3.8552   6.2016   5.2588   C.3       1 RES1   0.0000
    12 C12     -2.3744   6.4528   5.5922   C.3       1 RES1   0.0000
    13 C13     -3.1365   3.4165   2.0591   C.2       1 RES1   0.0000
    14 C14     -4.3990   3.2680   2.9020   C.3       1 RES1   0.0000
    15 C15     -5.6054   3.4804   2.0530   C.3       1 RES1   0.0000
    16 C16     -4.3602   1.8318   3.4298   C.3       1 RES1   0.0000
    17 C17     -2.8919   2.2980   7.9725   C.2       1 RES1   0.0000
    18 C18     -0.5331   2.8240   8.4584   C.3       1 RES1   0.0000
    19 C19     -0.0472   2.5478   7.0642   C.3       1 RES1   0.0000
    20 C20      0.4166   2.2384   9.5181   C.3       1 RES1   0.0000
    21 C21     -0.7267   4.2880   8.7520   C.3       1 RES1   0.0000
    22 C22     -0.7958   3.6552   1.9967   C.3       1 RES1   0.0000
    23 N1      -3.9275   1.5820   8.4247   N.am      1 RES1   0.0000
    24 N2      -5.6342   3.8273   8.2569   N.am      1 RES1   0.0000
    25 N3      -4.4472   5.5619   6.4228   N.am      1 RES1   0.0000
    26 N4      -4.3488   4.1520   4.0538   N.am      1 RES1   0.0000
    27 O1      -6.2886   3.0932   6.2315   O.2       1 RES1   0.0000
    28 O2      -6.4608   6.6027   6.1477   O.2       1 RES1   0.0000
    29 O3      -3.6813   5.9338   2.8856   O.2       1 RES1   0.0000
    30 O4      -2.9277   3.0363   7.0182   O.2       1 RES1   0.0000
    31 O5      -1.7863   2.0982   8.7551   O.3       1 RES1   0.0000
    32 O6      -2.0398   3.4928   2.7721   O.3       1 RES1   0.0000
    33 O7      -3.1359   3.3249   0.8521   O.2       1 RES1   0.0000
    34 C23      0.2418   4.0618   2.8427   C.ar      1 RES1   0.0000
    35 C24      1.2666   3.2000   3.2344   C.ar      1 RES1   0.0000
    36 C25      2.3147   3.6996   4.1244   C.ar      1 RES1   0.0000
    37 C26      2.1673   4.8819   4.4384   C.ar      1 RES1   0.0000
    38 C27      1.3326   5.7229   4.1417   C.ar      1 RES1   0.0000
    39 C28      0.3307   5.3274   3.3244   C.ar      1 RES1   0.0000
    40 H1      -4.9939   1.0130   6.7379   H         1 RES1   0.0000
    41 H2      -6.8214   0.1415   7.9623   H         1 RES1   0.0000
    42 H3      -6.6436   1.3072   9.2675   H         1 RES1   0.0000
    43 H4      -5.5300  -0.5801  10.1820   H         1 RES1   0.0000
    44 H5      -4.9029  -1.0796   8.6159   H         1 RES1   0.0000
    45 H6      -2.9869  -0.0430   9.4036   H         1 RES1   0.0000
    46 H7      -3.8843   1.0311  10.4694   H         1 RES1   0.0000
    47 H8      -8.0988   4.4739   7.2964   H         1 RES1   0.0000
    48 H9      -8.0910   4.6571   9.0558   H         1 RES1   0.0000
    49 H10     -8.1831   6.0865   8.0175   H         1 RES1   0.0000
    50 H11     -6.1279   7.0384   9.0957   H         1 RES1   0.0000
    51 H12     -6.4888   3.3721   2.6636   H         1 RES1   0.0000
    52 H13     -5.5680   4.4753   1.6326   H         1 RES1   0.0000
    53 H14     -3.4661   1.6985   4.0200   H         1 RES1   0.0000
    54 H15     -5.2337   1.6583   4.0415   H         1 RES1   0.0000
    55 H16     -4.3551   1.1490   2.5931   H         1 RES1   0.0000
    56 H17      0.0153   1.4793   6.9189   H         1 RES1   0.0000
    57 H18     -0.7440   2.9766   6.3584   H         1 RES1   0.0000
    58 H19      0.9280   2.9947   6.9374   H         1 RES1   0.0000
    59 H20      1.3936   2.6838   9.3995   H         1 RES1   0.0000
    60 H21      0.0279   2.4604  10.5001   H         1 RES1   0.0000
    61 H22      0.4811   1.1698   9.3801   H         1 RES1   0.0000
    62 H23     -1.4562   4.6904   8.0656   H         1 RES1   0.0000
    63 H24     -1.0741   4.3990   9.7626   H         1 RES1   0.0000
    64 H25      0.2167   4.7987   8.6282   H         1 RES1   0.0000
    65 H26     -0.5360   2.7157   1.5333   H         1 RES1   0.0000
    66 H27     -0.9453   4.3990   1.2275   H         1 RES1   0.0000
    67 H28      1.2856   2.1787   2.8866   H         1 RES1   0.0000
    68 H29     -6.0025   5.6257  10.1523   H         1 RES1   0.0000
    69 H30     -4.6259   6.1059   9.1509   H         1 RES1   0.0000
    70 H31     -4.3293   7.1605   5.1043   H         1 RES1   0.0000
    71 H32     -1.9242   7.0148   4.7882   H         1 RES1   0.0000
    72 H33     -2.3122   7.0134   6.5139   H         1 RES1   0.0000
    73 H34     -1.8733   5.5036   5.7047   H         1 RES1   0.0000
    74 H35     -5.6124   2.7463   1.2612   H         1 RES1   0.0000
    75 H36      3.1383   3.0932   4.4721   H         1 RES1   0.0000
    76 H37      2.9272   5.2497   5.1115   H         1 RES1   0.0000
    77 H38      1.3925   6.7345   4.5141   H         1 RES1   0.0000
    78 H39     -0.4272   6.0448   3.0462   H         1 RES1   0.0000
    79 H40     -5.1162   3.5872   9.1734   H         1 RES1   0.0000
    80 H41     -3.8609   4.8930   7.0366   H         1 RES1   0.0000
    81 H42     -4.6440   3.7704   5.0194   H         1 RES1   0.0000
@<TRIPOS>BOND
     1     1     2    1
     2     2     3    1
     3     3     4    1
     4     4     5    1
     5     5    23    1
     6     6     7    1
     7     7     8    1
     8     8    47    1
     9     9     7    1
    10    10    11    1
    11    11    12    1
    12    12    71    1
    13    13    14    1
    14    14    15    1
    15    15    51    1
    16    16    14    1
    17    17    23   am
    18    18    19    1
    19    19    56    1
    20    20    18    1
    21    21    18    1
    22    22    32    1
    23    23     2    1
    24    24     1   am
    25    25     6   am
    26    26    10   am
    27    27     1    2
    28    28     6    2
    29    29    10    2
    30    30    17    2
    31    31    17    1
    32    32    13    1
    33    33    13    2
    34    34    22    1
    35    35    34   ar
    36    36    35   ar
    37    37    36   ar
    38    38    37   ar
    39    39    34   ar
    40    40     2    1
    41    41     3    1
    42    42     3    1
    43    43     4    1
    44    44     4    1
    45    45     5    1
    46    46     5    1
    47    48     8    1
    48    49     8    1
    49    50     9    1
    50    52    15    1
    51    53    16    1
    52    54    16    1
    53    55    16    1
    54    57    19    1
    55    58    19    1
    56    59    20    1
    57    60    20    1
    58    61    20    1
    59    62    21    1
    60    63    21    1
    61    64    21    1
    62    65    22    1
    63    66    22    1
    64    67    35    1
    65    68     9    1
    66    69     9    1
    67    70    11    1
    68    72    12    1
    69    73    12    1
    70    74    15    1
    71    75    36    1
    72    76    37    1
    73    77    38    1
    74    78    39    1
    75    79    24    1
    76    80    25    1
    77    81    26    1
    78     7    24    1
    79    11    25    1
    80    14    26    1
    81    18    31    1
    82    38    39   ar
@<TRIPOS>SUBSTRUCTURE
     1 RES1        1 GROUP             0 ****  ****    0  
@<TRIPOS>CRYSIN
   11.1470   13.8770   10.4170   90.0000  100.9000   90.0000     4     1
