@<TRIPOS>MOLECULE
01
    28    28     1     0     0
SMALL
NO_CHARGES
****
Generated from the CSD

@<TRIPOS>ATOM
     1 C2      -5.1631   1.5639   7.6513   C.3       1 RES1   0.0000
     2 C3      -6.1097   0.6966   8.5556   C.3       1 RES1   0.0000
     3 C4      -5.1213  -0.2290   9.2461   C.3       1 RES1   0.0000
     4 C5      -3.8710   0.5717   9.4915   C.3       1 RES1   0.0000
     5 C17     -2.8919   2.2980   7.9725   C.2       1 RES1   0.0000
     6 C18     -0.5331   2.8240   8.4584   C.3       1 RES1   0.0000
     7 C19     -0.0472   2.5478   7.0642   C.3       1 RES1   0.0000
     8 C20      0.4166   2.2384   9.5181   C.3       1 RES1   0.0000
     9 C21     -0.7267   4.2880   8.7520   C.3       1 RES1   0.0000
    10 N1      -3.9275   1.5820   8.4247   N.am      1 RES1   0.0000
    11 O4      -2.9277   3.0363   7.0182   O.2       1 RES1   0.0000
    12 O5      -1.7863   2.0982   8.7551   O.3       1 RES1   0.0000
    13 H1      -4.9939   1.0130   6.7379   H         1 RES1   0.0000
    14 H2      -6.8214   0.1415   7.9623   H         1 RES1   0.0000
    15 H3      -6.6436   1.3072   9.2675   H         1 RES1   0.0000
    16 H4      -5.5300  -0.5801  10.1820   H         1 RES1   0.0000
    17 H5      -4.9029  -1.0796   8.6159   H         1 RES1   0.0000
    18 H6      -2.9869  -0.0430   9.4036   H         1 RES1   0.0000
    19 H7      -3.8843   1.0311  10.4694   H         1 RES1   0.0000
    20 H17      0.0153   1.4793   6.9189   H         1 RES1   0.0000
    21 H18     -0.7440   2.9766   6.3584   H         1 RES1   0.0000
    22 H19      0.9280   2.9947   6.9374   H         1 RES1   0.0000
    23 H20      1.3936   2.6838   9.3995   H         1 RES1   0.0000
    24 H21      0.0279   2.4604  10.5001   H         1 RES1   0.0000
    25 H22      0.4811   1.1698   9.3801   H         1 RES1   0.0000
    26 H23     -1.4562   4.6904   8.0656   H         1 RES1   0.0000
    27 H24     -1.0741   4.3990   9.7626   H         1 RES1   0.0000
    28 H25      0.2167   4.7987   8.6282   H         1 RES1   0.0000
@<TRIPOS>BOND
     1     1     2    1
     2     2     3    1
     3     3     4    1
     4     4    10    1
     5     5    10   am
     6     6     7    1
     7     7    20    1
     8     8     6    1
     9     9     6    1
    10    10     1    1
    11    11     5    2
    12    12     5    1
    13    13     1    1
    14    14     2    1
    15    15     2    1
    16    16     3    1
    17    17     3    1
    18    18     4    1
    19    19     4    1
    20    21     7    1
    21    22     7    1
    22    23     8    1
    23    24     8    1
    24    25     8    1
    25    26     9    1
    26    27     9    1
    27    28     9    1
    28     6    12    1
@<TRIPOS>SUBSTRUCTURE
     1 RES1        1 GROUP             0 ****  ****    0  
