@<TRIPOS>MOLECULE
01
    23    23     1     0     0
SMALL
NO_CHARGES
****
Generated from the CSD

@<TRIPOS>ATOM
     1 C1       6.3797   0.9151   3.3161   C.ar      1 RES1   0.0000
     2 C2       5.6112  -0.0548   2.6732   C.ar      1 RES1   0.0000
     3 C3       4.3370  -0.3383   3.1349   C.ar      1 RES1   0.0000
     4 C4       3.8321   0.2985   4.2517   C.ar      1 RES1   0.0000
     5 H1       2.9751   0.1026   4.5552   H         1 RES1   0.0000
     6 C5       4.6181   1.2417   4.9235   C.ar      1 RES1   0.0000
     7 C6       5.8743   1.5531   4.4324   C.ar      1 RES1   0.0000
     8 H2       6.3854   2.2019   4.8608   H         1 RES1   0.0000
     9 C7       8.3840   2.1947   3.3415   C.3       1 RES1   0.0000
    10 H3       7.8900   3.0174   3.3013   H         1 RES1   0.0000
    11 H4       9.2017   2.2879   2.8479   H         1 RES1   0.0000
    12 H5       8.5850   1.9865   4.2568   H         1 RES1   0.0000
    13 C8       6.1061  -0.2664   0.3851   C.3       1 RES1   0.0000
    14 H6       5.1896  -0.1891   0.1090   H         1 RES1   0.0000
    15 H7       6.5771  -0.8366  -0.2267   H         1 RES1   0.0000
    16 H8       6.5123   0.6037   0.3902   H         1 RES1   0.0000
    17 C9       2.3028  -1.5353   2.7786   C.3       1 RES1   0.0000
    18 H9       2.2702  -1.8734   3.6772   H         1 RES1   0.0000
    19 H10      1.9275  -2.1842   2.1793   H         1 RES1   0.0000
    20 H11      1.7985  -0.7202   2.7245   H         1 RES1   0.0000
    21 O1       7.6057   1.1459   2.7762   O.3       1 RES1   0.0000
    22 O2       6.1626  -0.8134   1.6683   O.3       1 RES1   0.0000
    23 O3       3.6540  -1.2817   2.4162   O.3       1 RES1   0.0000
@<TRIPOS>BOND
     1     1     2   ar
     2     2     3   ar
     3     3     4   ar
     4     4     5    1
     5     6     4   ar
     6     7     1   ar
     7     8     7    1
     8     9    10    1
     9    11     9    1
    10    12     9    1
    11    13    14    1
    12    15    13    1
    13    16    13    1
    14    17    18    1
    15    19    17    1
    16    20    17    1
    17    21     1    1
    18    22     2    1
    19    23     3    1
    20     6     7   ar
    21     9    21    1
    22    13    22    1
    23    17    23    1
@<TRIPOS>SUBSTRUCTURE
     1 RES1        1 GROUP             0 ****  ****    0  
