@<TRIPOS>MOLECULE
CAWJUJ
    72    75     1     0     0
SMALL
NO_CHARGES
****
Generated from the CSD

@<TRIPOS>ATOM
     1 C1       6.3797   0.9151   3.3161   C.ar      1 RES1   0.0000
     2 C2       5.6112  -0.0548   2.6732   C.ar      1 RES1   0.0000
     3 C3       4.3370  -0.3383   3.1349   C.ar      1 RES1   0.0000
     4 C4       3.8321   0.2985   4.2517   C.ar      1 RES1   0.0000
     5 H1       2.9751   0.1026   4.5552   H         1 RES1   0.0000
     6 C5       4.6181   1.2417   4.9235   C.ar      1 RES1   0.0000
     7 C6       5.8743   1.5531   4.4324   C.ar      1 RES1   0.0000
     8 H2       6.3854   2.2019   4.8608   H         1 RES1   0.0000
     9 C7       8.3840   2.1947   3.3415   C.3       1 RES1   0.0000
    10 H3       7.8900   3.0174   3.3013   H         1 RES1   0.0000
    11 H4       9.2017   2.2879   2.8479   H         1 RES1   0.0000
    12 H5       8.5850   1.9865   4.2568   H         1 RES1   0.0000
    13 C8       6.1061  -0.2664   0.3851   C.3       1 RES1   0.0000
    14 H6       5.1896  -0.1891   0.1090   H         1 RES1   0.0000
    15 H7       6.5771  -0.8366  -0.2267   H         1 RES1   0.0000
    16 H8       6.5123   0.6037   0.3902   H         1 RES1   0.0000
    17 C9       2.3028  -1.5353   2.7786   C.3       1 RES1   0.0000
    18 H9       2.2702  -1.8734   3.6772   H         1 RES1   0.0000
    19 H10      1.9275  -2.1842   2.1793   H         1 RES1   0.0000
    20 H11      1.7985  -0.7202   2.7245   H         1 RES1   0.0000
    21 C10      4.1552   1.9078   6.1360   C.2       1 RES1   0.0000
    22 H12      4.7123   2.5670   6.4835   H         1 RES1   0.0000
    23 C11      3.0368   1.6815   6.7940   C.2       1 RES1   0.0000
    24 H13      2.4738   1.0176   6.4677   H         1 RES1   0.0000
    25 C12      2.6130   2.3970   8.0012   C.2       1 RES1   0.0000
    26 C13      3.0715   4.0852   9.5690   C.3       1 RES1   0.0000
    27 H14      2.9500   3.4927  10.3271   H         1 RES1   0.0000
    28 H15      2.2329   4.5423   9.3989   H         1 RES1   0.0000
    29 C14      4.1360   5.0695   9.8594   C.3       1 RES1   0.0000
    30 H16      4.2706   5.6375   9.0847   H         1 RES1   0.0000
    31 H17      4.9672   4.6027  10.0373   H         1 RES1   0.0000
    32 C15      3.7734   5.9273  11.0564   C.3       1 RES1   0.0000
    33 H18      2.8726   6.2670  10.9397   H         1 RES1   0.0000
    34 H19      3.7805   5.3747  11.8537   H         1 RES1   0.0000
    35 C16      4.7204   7.0951  11.2560   C.3       1 RES1   0.0000
    36 H20      4.2942   7.7580  11.8221   H         1 RES1   0.0000
    37 H21      4.9016   7.5085  10.3974   H         1 RES1   0.0000
    38 C17      6.0314   6.6662  11.8907   C.3       1 RES1   0.0000
    39 H22      5.8990   6.5714  12.8465   H         1 RES1   0.0000
    40 H23      6.2787   5.7966  11.5395   H         1 RES1   0.0000
    41 C18      7.6241   8.6089  12.4585   C.ar      1 RES1   0.0000
    42 C19      7.2008   9.1229  13.6904   C.ar      1 RES1   0.0000
    43 C20      8.9920  10.5578  13.7056   C.ar      1 RES1   0.0000
    44 H24      9.4764  11.2065  14.1621   H         1 RES1   0.0000
    45 C21      9.4487  10.1718  12.4775   C.ar      1 RES1   0.0000
    46 H25     10.1998  10.5662  12.0961   H         1 RES1   0.0000
    47 C22      8.7533   9.1759  11.8244   C.ar      1 RES1   0.0000
    48 C23      8.9059   8.4897  10.5743   C.ar      1 RES1   0.0000
    49 C24      9.8076   8.5959   9.5086   C.ar      1 RES1   0.0000
    50 H26     10.4812   9.2367   9.5237   H         1 RES1   0.0000
    51 C25      9.6828   7.7454   8.4463   C.ar      1 RES1   0.0000
    52 H27     10.2726   7.8157   7.7303   H         1 RES1   0.0000
    53 C26      8.6892   6.7773   8.4211   C.ar      1 RES1   0.0000
    54 C27      7.7739   6.6422   9.4396   C.ar      1 RES1   0.0000
    55 H28      7.1048   5.9971   9.4132   H         1 RES1   0.0000
    56 C28      7.9028   7.5240  10.5136   C.ar      1 RES1   0.0000
    57 C29      7.7630   4.9307   7.2330   C.3       1 RES1   0.0000
    58 H29      7.9204   4.3260   7.9613   H         1 RES1   0.0000
    59 H30      7.8732   4.4657   6.4003   H         1 RES1   0.0000
    60 H31      6.8692   5.2760   7.2913   H         1 RES1   0.0000
    61 C30      5.9450   8.6871  14.4069   C.3       1 RES1   0.0000
    62 H32      5.8236   9.2243  15.1937   H         1 RES1   0.0000
    63 H33      6.0241   7.7639  14.6585   H         1 RES1   0.0000
    64 H34      5.1902   8.7973  13.8250   H         1 RES1   0.0000
    65 N1       7.1270   7.5955  11.6573   N.pl3     1 RES1   0.0000
    66 N2       7.9015  10.0701  14.2954   N.ar      1 RES1   0.0000
    67 O1       7.6057   1.1459   2.7762   O.3       1 RES1   0.0000
    68 O2       6.1626  -0.8134   1.6683   O.3       1 RES1   0.0000
    69 O3       3.6540  -1.2817   2.4162   O.3       1 RES1   0.0000
    70 O4       1.5787   2.1730   8.5831   O.2       1 RES1   0.0000
    71 O5       3.4686   3.3248   8.4017   O.3       1 RES1   0.0000
    72 O6       8.6769   5.9900   7.2996   O.3       1 RES1   0.0000
@<TRIPOS>BOND
     1     1     2   ar
     2     2     3   ar
     3     3     4   ar
     4     4     5    1
     5     6     4   ar
     6     7     1   ar
     7     8     7    1
     8     9    10    1
     9    11     9    1
    10    12     9    1
    11    13    14    1
    12    15    13    1
    13    16    13    1
    14    17    18    1
    15    19    17    1
    16    20    17    1
    17    21     6    1
    18    22    21    1
    19    23    21    2
    20    24    23    1
    21    25    23    1
    22    26    27    1
    23    28    26    1
    24    29    26    1
    25    30    29    1
    26    31    29    1
    27    32    29    1
    28    33    32    1
    29    34    32    1
    30    35    32    1
    31    36    35    1
    32    37    35    1
    33    38    35    1
    34    39    38    1
    35    40    38    1
    36    41    42   ar
    37    42    61    1
    38    43    44    1
    39    45    43   ar
    40    46    45    1
    41    47    41   ar
    42    48    47    1
    43    49    48   ar
    44    50    49    1
    45    51    49   ar
    46    52    51    1
    47    53    51   ar
    48    54    53   ar
    49    55    54    1
    50    56    48   ar
    51    57    58    1
    52    59    57    1
    53    60    57    1
    54    61    62    1
    55    63    61    1
    56    64    61    1
    57    65    38    1
    58    66    42   ar
    59    67     1    1
    60    68     2    1
    61    69     3    1
    62    70    25    2
    63    71    25    1
    64    72    53    1
    65     6     7   ar
    66     9    67    1
    67    13    68    1
    68    17    69    1
    69    26    71    1
    70    41    65    1
    71    43    66   ar
    72    45    47   ar
    73    54    56   ar
    74    56    65    1
    75    57    72    1
@<TRIPOS>SUBSTRUCTURE
     1 RES1        1 GROUP             0 ****  ****    0  
@<TRIPOS>CRYSIN
    7.9502   12.4483   14.6310   81.0410   80.9340   73.8830     2     1
