@<TRIPOS>MOLECULE
02
    27    29     1     0     0
SMALL
NO_CHARGES
****
Generated from the CSD

@<TRIPOS>ATOM
     1 C18      7.6241   8.6089  12.4585   C.ar      1 RES2   0.0000
     2 C19      7.2008   9.1229  13.6904   C.ar      1 RES2   0.0000
     3 C20      8.9920  10.5578  13.7056   C.ar      1 RES2   0.0000
     4 H24      9.4764  11.2065  14.1621   H         1 RES2   0.0000
     5 C21      9.4487  10.1718  12.4775   C.ar      1 RES2   0.0000
     6 H25     10.1998  10.5662  12.0961   H         1 RES2   0.0000
     7 C22      8.7533   9.1759  11.8244   C.ar      1 RES2   0.0000
     8 C23      8.9059   8.4897  10.5743   C.ar      1 RES2   0.0000
     9 C24      9.8076   8.5959   9.5086   C.ar      1 RES2   0.0000
    10 H26     10.4812   9.2367   9.5237   H         1 RES2   0.0000
    11 C25      9.6828   7.7454   8.4463   C.ar      1 RES2   0.0000
    12 H27     10.2726   7.8157   7.7303   H         1 RES2   0.0000
    13 C26      8.6892   6.7773   8.4211   C.ar      1 RES2   0.0000
    14 C27      7.7739   6.6422   9.4396   C.ar      1 RES2   0.0000
    15 H28      7.1048   5.9971   9.4132   H         1 RES2   0.0000
    16 C28      7.9028   7.5240  10.5136   C.ar      1 RES2   0.0000
    17 C29      7.7630   4.9307   7.2330   C.3       1 RES2   0.0000
    18 H29      7.9204   4.3260   7.9613   H         1 RES2   0.0000
    19 H30      7.8732   4.4657   6.4003   H         1 RES2   0.0000
    20 H31      6.8692   5.2760   7.2913   H         1 RES2   0.0000
    21 C30      5.9450   8.6871  14.4069   C.3       1 RES2   0.0000
    22 H32      5.8236   9.2243  15.1937   H         1 RES2   0.0000
    23 H33      6.0241   7.7639  14.6585   H         1 RES2   0.0000
    24 H34      5.1902   8.7973  13.8250   H         1 RES2   0.0000
    25 N1       7.1270   7.5955  11.6573   N.2       1 RES2   0.0000
    26 N2       7.9015  10.0701  14.2954   N.ar      1 RES2   0.0000
    27 O6       8.6769   5.9900   7.2996   O.3       1 RES2   0.0000
@<TRIPOS>BOND
     1     1     2   ar
     2     2    21    1
     3     3     4    1
     4     5     3   ar
     5     6     5    1
     6     7     1   ar
     7     8     7    1
     8     9     8   ar
     9    10     9    1
    10    11     9   ar
    11    12    11    1
    12    13    11   ar
    13    14    13   ar
    14    15    14    1
    15    16     8   ar
    16    17    18    1
    17    19    17    1
    18    20    17    1
    19    21    22    1
    20    23    21    1
    21    24    21    1
    22    26     2   ar
    23    27    13    1
    24     1    25    1
    25     3    26   ar
    26     5     7   ar
    27    14    16   ar
    28    16    25    1
    29    17    27    1
@<TRIPOS>SUBSTRUCTURE
     1 RES2        1 GROUP             0 ****  ****    0  
