@<TRIPOS>MOLECULE
COCHOT
    64    66     1     0     0
SMALL
NO_CHARGES
****
Generated from the CSD

@<TRIPOS>ATOM
     1 Br1      2.8377   5.3537   0.6304   Br        1 RES1   0.0000
     2 O1       0.2008   4.1661   0.2158   O.3       1 RES1   0.0000
     3 O2      -0.7317   5.7757  10.2660   O.3       1 RES1   0.0000
     4 O3      -2.7747   5.2707  11.0680   O.2       1 RES1   0.0000
     5 O4      -3.4044   6.2166  15.9127   O.2       1 RES1   0.0000
     6 O5      -2.1062   7.6266  16.8992   O.2       1 RES1   0.0000
     7 O6       2.1595   8.6928  14.8283   O.2       1 RES1   0.0000
     8 O7       2.4571   8.2071  12.7448   O.2       1 RES1   0.0000
     9 N1      -2.4243   6.9258  15.9461   N.pl3     1 RES1   0.0000
    10 N2       1.7860   8.2101  13.7649   N.pl3     1 RES1   0.0000
    11 C1      -1.0751   5.2667   8.9457   C.3       1 RES1   0.0000
    12 H1      -1.7935   5.8096   8.5356   H         1 RES1   0.0000
    13 H2      -1.3771   4.3253   9.0000   H         1 RES1   0.0000
    14 C2       0.2087   5.3750   8.1392   C.3       1 RES1   0.0000
    15 H3       0.8740   4.7331   8.4936   H         1 RES1   0.0000
    16 H4       0.5819   6.2864   8.2380   H         1 RES1   0.0000
    17 C3      -0.0356   5.0849   6.6571   C.3       1 RES1   0.0000
    18 H5      -0.8050   5.6275   6.3520   H         1 RES1   0.0000
    19 H6      -0.2843   4.1322   6.5583   H         1 RES1   0.0000
    20 C4       1.1793   5.3795   5.7295   C.3       1 RES1   0.0000
    21 C5       2.4217   4.5834   6.1223   C.3       1 RES1   0.0000
    22 H7       3.1847   4.9065   5.5801   H         1 RES1   0.0000
    23 H8       2.6283   4.7727   7.0708   H         1 RES1   0.0000
    24 C6       2.3087   3.0990   5.9469   C.3       1 RES1   0.0000
    25 H9       3.1462   2.6728   6.2260   H         1 RES1   0.0000
    26 H10      2.1357   2.8938   5.0045   H         1 RES1   0.0000
    27 H11      1.5710   2.7608   6.4953   H         1 RES1   0.0000
    28 C7       1.5345   6.8915   5.8370   C.3       1 RES1   0.0000
    29 H12      1.7689   7.1073   6.7633   H         1 RES1   0.0000
    30 H13      0.7630   7.4290   5.5616   H         1 RES1   0.0000
    31 H14      2.2963   7.0906   5.2528   H         1 RES1   0.0000
    32 C8       0.8114   5.0620   4.2709   C.ar      1 RES1   0.0000
    33 C9       1.7783   5.3173   3.2705   C.ar      1 RES1   0.0000
    34 H15      2.6121   5.7058   3.5076   H         1 RES1   0.0000
    35 C10      1.5171   5.0042   1.9490   C.ar      1 RES1   0.0000
    36 C11      0.3248   4.4407   1.5488   C.ar      1 RES1   0.0000
    37 C12     -0.6585   4.1929   2.5171   C.ar      1 RES1   0.0000
    38 H16     -1.4945   3.8160   2.2701   H         1 RES1   0.0000
    39 C13     -0.3877   4.5104   3.8571   C.ar      1 RES1   0.0000
    40 H17     -1.0577   4.3389   4.5080   H         1 RES1   0.0000
    41 C14     -0.9227   3.3974  -0.2075   C.3       1 RES1   0.0000
    42 H18     -1.7529   3.9295  -0.1198   H         1 RES1   0.0000
    43 H19     -1.0102   2.5854   0.3520   H         1 RES1   0.0000
    44 C15     -0.6985   3.0137  -1.6538   C.ar      1 RES1   0.0000
    45 C16      0.5563   3.0185  -2.2207   C.ar      1 RES1   0.0000
    46 H20      1.3090   3.2759  -1.7019   H         1 RES1   0.0000
    47 C17      0.7263   2.6470  -3.5484   C.ar      1 RES1   0.0000
    48 H21      1.5967   2.6410  -3.9288   H         1 RES1   0.0000
    49 C18     -0.3550   2.2904  -4.3141   C.ar      1 RES1   0.0000
    50 H22     -0.2357   2.0527  -5.2269   H         1 RES1   0.0000
    51 C19     -1.6083   2.2781  -3.7571   C.ar      1 RES1   0.0000
    52 H23     -2.3555   2.0152  -4.2833   H         1 RES1   0.0000
    53 C20     -1.7966   2.6500  -2.4170   C.ar      1 RES1   0.0000
    54 H24     -2.6675   2.6530  -2.0379   H         1 RES1   0.0000
    55 C21     -1.6791   5.7330  11.2009   C.2       1 RES1   0.0000
    56 C22     -1.1801   6.3701  12.4669   C.ar      1 RES1   0.0000
    57 C23     -1.9967   6.3317  13.5982   C.ar      1 RES1   0.0000
    58 H25     -2.8433   5.9018  13.5723   H         1 RES1   0.0000
    59 C24     -1.5456   6.9334  14.7579   C.ar      1 RES1   0.0000
    60 C25     -0.3255   7.5888  14.8543   C.ar      1 RES1   0.0000
    61 H26     -0.0426   8.0134  15.6546   H         1 RES1   0.0000
    62 C26      0.4528   7.5862  13.7106   C.ar      1 RES1   0.0000
    63 C27      0.0645   7.0005  12.5262   C.ar      1 RES1   0.0000
    64 H27      0.6312   7.0253  11.7641   H         1 RES1   0.0000
@<TRIPOS>BOND
     1     1    35    1
     2     2    36    1
     3     3    11    1
     4     4    55    2
     5     5     9    2
     6     6     9    2
     7     7    10    2
     8     8    10    2
     9     9    59    1
    10    10    62    1
    11    11    12    1
    12    13    11    1
    13    14    11    1
    14    15    14    1
    15    16    14    1
    16    17    14    1
    17    18    17    1
    18    19    17    1
    19    20    17    1
    20    21    20    1
    21    22    21    1
    22    23    21    1
    23    24    21    1
    24    25    24    1
    25    26    24    1
    26    27    24    1
    27    28    20    1
    28    29    28    1
    29    30    28    1
    30    31    28    1
    31    32    20    1
    32    33    32   ar
    33    34    33    1
    34    35    33   ar
    35    36    35   ar
    36    37    36   ar
    37    38    37    1
    38    39    32   ar
    39    40    39    1
    40    41     2    1
    41    42    41    1
    42    43    41    1
    43    44    41    1
    44    45    44   ar
    45    46    45    1
    46    47    45   ar
    47    48    47    1
    48    49    47   ar
    49    50    49    1
    50    51    49   ar
    51    52    51    1
    52    53    44   ar
    53    54    53    1
    54    55     3    1
    55    56    55    1
    56    57    56   ar
    57    58    57    1
    58    59    57   ar
    59    60    59   ar
    60    61    60    1
    61    62    60   ar
    62    63    56   ar
    63    64    63    1
    64    37    39   ar
    65    51    53   ar
    66    62    63   ar
@<TRIPOS>SUBSTRUCTURE
     1 RES1        1 GROUP             0 ****  ****    0  
@<TRIPOS>CRYSIN
    6.9374    7.6510   12.4360   95.1307   94.2669   90.5343     1     1
