@<TRIPOS>MOLECULE
02
    15    15     1     0     0
SMALL
NO_CHARGES
****
Generated from the CSD

@<TRIPOS>ATOM
     1 O4      -3.4044   6.2166  15.9127   O.2       1 RES2   0.0000
     2 O5      -2.1062   7.6266  16.8992   O.2       1 RES2   0.0000
     3 O6       2.1595   8.6928  14.8283   O.2       1 RES2   0.0000
     4 O7       2.4571   8.2071  12.7448   O.2       1 RES2   0.0000
     5 N1      -2.4243   6.9258  15.9461   N.pl3     1 RES2   0.0000
     6 N2       1.7860   8.2101  13.7649   N.pl3     1 RES2   0.0000
     7 C22     -1.1801   6.3701  12.4669   C.ar      1 RES2   0.0000
     8 C23     -1.9967   6.3317  13.5982   C.ar      1 RES2   0.0000
     9 H25     -2.8433   5.9018  13.5723   H         1 RES2   0.0000
    10 C24     -1.5456   6.9334  14.7579   C.ar      1 RES2   0.0000
    11 C25     -0.3255   7.5888  14.8543   C.ar      1 RES2   0.0000
    12 H26     -0.0426   8.0134  15.6546   H         1 RES2   0.0000
    13 C26      0.4528   7.5862  13.7106   C.ar      1 RES2   0.0000
    14 C27      0.0645   7.0005  12.5262   C.ar      1 RES2   0.0000
    15 H27      0.6312   7.0253  11.7641   H         1 RES2   0.0000
@<TRIPOS>BOND
     1     1     5    2
     2     2     5    2
     3     3     6    2
     4     4     6    2
     5     5    10    1
     6     6    13    1
     7     8     7   ar
     8     9     8    1
     9    10     8   ar
    10    11    10   ar
    11    12    11    1
    12    13    11   ar
    13    14     7   ar
    14    15    14    1
    15    13    14   ar
@<TRIPOS>SUBSTRUCTURE
     1 RES2        1 GROUP             0 ****  ****    0  
