@<TRIPOS>MOLECULE
01
    25    26     1     0     0
SMALL
NO_CHARGES
****
Generated from the CSD

@<TRIPOS>ATOM
     1 Br1      2.8377   5.3537   0.6304   Br        1 RES1   0.0000
     2 O1       0.2008   4.1661   0.2158   O.3       1 RES1   0.0000
     3 C8       0.8114   5.0620   4.2709   C.ar      1 RES1   0.0000
     4 C9       1.7783   5.3173   3.2705   C.ar      1 RES1   0.0000
     5 H15      2.6121   5.7058   3.5076   H         1 RES1   0.0000
     6 C10      1.5171   5.0042   1.9490   C.ar      1 RES1   0.0000
     7 C11      0.3248   4.4407   1.5488   C.ar      1 RES1   0.0000
     8 C12     -0.6585   4.1929   2.5171   C.ar      1 RES1   0.0000
     9 H16     -1.4945   3.8160   2.2701   H         1 RES1   0.0000
    10 C13     -0.3877   4.5104   3.8571   C.ar      1 RES1   0.0000
    11 H17     -1.0577   4.3389   4.5080   H         1 RES1   0.0000
    12 C14     -0.9227   3.3974  -0.2075   C.3       1 RES1   0.0000
    13 H18     -1.7529   3.9295  -0.1198   H         1 RES1   0.0000
    14 H19     -1.0102   2.5854   0.3520   H         1 RES1   0.0000
    15 C15     -0.6985   3.0137  -1.6538   C.ar      1 RES1   0.0000
    16 C16      0.5563   3.0185  -2.2207   C.ar      1 RES1   0.0000
    17 H20      1.3090   3.2759  -1.7019   H         1 RES1   0.0000
    18 C17      0.7263   2.6470  -3.5484   C.ar      1 RES1   0.0000
    19 H21      1.5967   2.6410  -3.9288   H         1 RES1   0.0000
    20 C18     -0.3550   2.2904  -4.3141   C.ar      1 RES1   0.0000
    21 H22     -0.2357   2.0527  -5.2269   H         1 RES1   0.0000
    22 C19     -1.6083   2.2781  -3.7571   C.ar      1 RES1   0.0000
    23 H23     -2.3555   2.0152  -4.2833   H         1 RES1   0.0000
    24 C20     -1.7966   2.6500  -2.4170   C.ar      1 RES1   0.0000
    25 H24     -2.6675   2.6530  -2.0379   H         1 RES1   0.0000
@<TRIPOS>BOND
     1     1     6    1
     2     2     7    1
     3     4     3   ar
     4     5     4    1
     5     6     4   ar
     6     7     6   ar
     7     8     7   ar
     8     9     8    1
     9    10     3   ar
    10    11    10    1
    11    12     2    1
    12    13    12    1
    13    14    12    1
    14    15    12    1
    15    16    15   ar
    16    17    16    1
    17    18    16   ar
    18    19    18    1
    19    20    18   ar
    20    21    20    1
    21    22    20   ar
    22    23    22    1
    23    24    15   ar
    24    25    24    1
    25     8    10   ar
    26    22    24   ar
@<TRIPOS>SUBSTRUCTURE
     1 RES1        1 GROUP             0 ****  ****    0  
