@<TRIPOS>MOLECULE
02
    15    15     1     0     0
SMALL
NO_CHARGES
****
Generated from the CSD

@<TRIPOS>ATOM
     1 O2      20.7822   6.2272  17.7079   O.2       1 RES2   0.0000
     2 N5      20.5928   5.1641  17.1572   N.pl3     1 RES2   0.0000
     3 C17     19.4865   6.4145  15.3802   C.ar      1 RES2   0.0000
     4 H13     19.7490   7.2088  15.8296   H         1 RES2   0.0000
     5 O3      20.9291   4.0363  17.5746   O.2       1 RES2   0.0000
     6 C22     18.2774   5.3025  13.5567   C.ar      1 RES2   0.0000
     7 C24     19.8536   5.1958  15.8369   C.ar      1 RES2   0.0000
     8 O4      17.3677   7.8853  12.9255   O.2       1 RES2   0.0000
     9 C26     18.6956   6.4659  14.2076   C.ar      1 RES2   0.0000
    10 N6      18.2806   7.7644  13.7675   N.pl3     1 RES2   0.0000
    11 C28     19.5422   4.0466  15.2221   C.ar      1 RES2   0.0000
    12 H26     19.8444   3.2144  15.5662   H         1 RES2   0.0000
    13 C29     18.7786   4.0980  14.0919   C.ar      1 RES2   0.0000
    14 H27     18.5749   3.2847  13.6446   H         1 RES2   0.0000
    15 O5      18.8095   8.7515  14.2376   O.2       1 RES2   0.0000
@<TRIPOS>BOND
     1     1     2    2
     2     2     5    2
     3     3     4    1
     4     7     2    1
     5     8    10    2
     6     9     3   ar
     7    10     9    1
     8    11     7   ar
     9    12    11    1
    10    13     6   ar
    11    14    13    1
    12    15    10    2
    13     3     7   ar
    14     6     9   ar
    15    11    13   ar
@<TRIPOS>SUBSTRUCTURE
     1 RES2        1 GROUP             0 ****  ****    0  
