@<TRIPOS>MOLECULE
01
    39    41     1     0     0
SMALL
NO_CHARGES
****
Generated from the CSD

@<TRIPOS>ATOM
     1 Cl1      8.5581   1.8090   8.4873   Cl        1 RES1   0.0000
     2 S1      11.7046  -2.6616   4.2285   S.3       1 RES1   0.0000
     3 S2      10.1268  -1.5941   6.5658   S.3       1 RES1   0.0000
     4 O1      12.8831  -1.1642   8.6690   O.3       1 RES1   0.0000
     5 C1      11.4009  -2.7765   6.0201   C.3       1 RES1   0.0000
     6 C3       9.4351   2.5805  10.9223   C.ar      1 RES1   0.0000
     7 H1       8.6404   3.0974  10.9811   H         1 RES1   0.0000
     8 C4      12.6418  -2.4532   8.2454   C.2       1 RES1   0.0000
     9 C5      11.7551   1.0393  10.7435   C.ar      1 RES1   0.0000
    10 C8      12.7525  -2.6192   6.7732   C.3       1 RES1   0.0000
    11 H3      13.3072  -3.4175   6.5883   H         1 RES1   0.0000
    12 H4      13.2265  -1.8336   6.4033   H         1 RES1   0.0000
    13 C9      12.9947   0.1699  10.6898   C.3       1 RES1   0.0000
    14 H5      13.2492  -0.0174  11.6382   H         1 RES1   0.0000
    15 C10     11.5060   1.8170  11.8645   C.ar      1 RES1   0.0000
    16 H6      12.1328   1.8312  12.5794   H         1 RES1   0.0000
    17 C11     10.8424   1.0369   9.7021   C.ar      1 RES1   0.0000
    18 H7      10.9996   0.5090   8.9283   H         1 RES1   0.0000
    19 C12      9.7025   1.8107   9.7992   C.ar      1 RES1   0.0000
    20 C13     12.7585  -1.1634  10.0420   C.2       1 RES1   0.0000
    21 C14     11.0173   0.0356   4.4828   C.3       1 RES1   0.0000
    22 H8      11.2791   0.9579   4.2338   H         1 RES1   0.0000
    23 H9      10.1724  -0.1755   4.0137   H         1 RES1   0.0000
    24 C15     10.3464   2.5750  11.9451   C.ar      1 RES1   0.0000
    25 H10     10.1817   3.0974  12.7209   H         1 RES1   0.0000
    26 C16     10.7760  -0.0174   5.9643   C.3       1 RES1   0.0000
    27 H11     10.1393   0.6995   6.2060   H         1 RES1   0.0000
    28 H12     11.6282   0.1707   6.4302   H         1 RES1   0.0000
    29 C18     10.8288  -4.1628   6.2618   C.3       1 RES1   0.0000
    30 H14     10.0351  -4.2908   5.7029   H         1 RES1   0.0000
    31 H15     10.5821  -4.2552   7.2061   H         1 RES1   0.0000
    32 H16     11.5022  -4.8385   6.0325   H         1 RES1   0.0000
    33 C19     12.3532  -3.2199   9.2961   C.2       1 RES1   0.0000
    34 H17     12.1317  -4.1438   9.2713   H         1 RES1   0.0000
    35 C21     12.4354  -2.3971  10.4718   C.2       1 RES1   0.0000
    36 H19     12.2904  -2.6690  11.3706   H         1 RES1   0.0000
    37 C25     12.0840  -0.9136   4.0096   C.3       1 RES1   0.0000
    38 H22     12.9215  -0.7113   4.4962   H         1 RES1   0.0000
    39 H23     12.2483  -0.7469   3.0477   H         1 RES1   0.0000
@<TRIPOS>BOND
     1     1    19    1
     2     2     5    1
     3     3     5    1
     4     4     8    1
     5     5    10    1
     6     6     7    1
     7     8    10    1
     8     9    13    1
     9    10    11    1
    10    12    10    1
    11    14    13    1
    12    15     9   ar
    13    16    15    1
    14    17     9   ar
    15    18    17    1
    16    19     6   ar
    17    20     4    1
    18    21    22    1
    19    23    21    1
    20    24     6   ar
    21    25    24    1
    22    26     3    1
    23    27    26    1
    24    28    26    1
    25    29     5    1
    26    30    29    1
    27    31    29    1
    28    32    29    1
    29    33     8    2
    30    34    33    1
    31    35    20    2
    32    36    35    1
    33    37     2    1
    34    38    37    1
    35    39    37    1
    36    13    20    1
    37    15    24   ar
    38    17    19   ar
    39    21    26    1
    40    21    37    1
    41    33    35    1
@<TRIPOS>SUBSTRUCTURE
     1 RES1        1 GROUP             0 ****  ****    0  
