@<TRIPOS>MOLECULE
COCZIF
    70    73     1     0     0
SMALL
NO_CHARGES
****
Generated from the CSD

@<TRIPOS>ATOM
     1 Cl1      8.5581   1.8090   8.4873   Cl        1 RES1   0.0000
     2 S1      11.7046  -2.6616   4.2285   S.3       1 RES1   0.0000
     3 S2      10.1268  -1.5941   6.5658   S.3       1 RES1   0.0000
     4 O1      12.8831  -1.1642   8.6690   O.3       1 RES1   0.0000
     5 C1      11.4009  -2.7765   6.0201   C.3       1 RES1   0.0000
     6 N1      13.6859   1.8131   7.6245   N.1       1 RES1   0.0000
     7 C2      15.3335  -0.0609   9.9263   C.1       1 RES1   0.0000
     8 C3       9.4351   2.5805  10.9223   C.ar      1 RES1   0.0000
     9 H1       8.6404   3.0974  10.9811   H         1 RES1   0.0000
    10 N2      17.4267   5.2803  12.4988   N.pl3     1 RES1   0.0000
    11 H2      17.0393   6.0169  12.2137   H         1 RES1   0.0000
    12 C4      12.6418  -2.4532   8.2454   C.2       1 RES1   0.0000
    13 C5      11.7551   1.0393  10.7435   C.ar      1 RES1   0.0000
    14 N3      17.1895   4.0687  11.8831   N.2       1 RES1   0.0000
    15 C6      14.2147   0.8978  10.0358   C.3       1 RES1   0.0000
    16 C7      13.9079   1.3720   8.6628   C.1       1 RES1   0.0000
    17 C8      12.7525  -2.6192   6.7732   C.3       1 RES1   0.0000
    18 H3      13.3072  -3.4175   6.5883   H         1 RES1   0.0000
    19 H4      13.2265  -1.8336   6.4033   H         1 RES1   0.0000
    20 C9      12.9947   0.1699  10.6898   C.3       1 RES1   0.0000
    21 H5      13.2492  -0.0174  11.6382   H         1 RES1   0.0000
    22 C10     11.5060   1.8170  11.8645   C.ar      1 RES1   0.0000
    23 H6      12.1328   1.8312  12.5794   H         1 RES1   0.0000
    24 O2      20.7822   6.2272  17.7079   O.2       1 RES1   0.0000
    25 C11     10.8424   1.0369   9.7021   C.ar      1 RES1   0.0000
    26 H7      10.9996   0.5090   8.9283   H         1 RES1   0.0000
    27 C12      9.7025   1.8107   9.7992   C.ar      1 RES1   0.0000
    28 C13     12.7585  -1.1634  10.0420   C.2       1 RES1   0.0000
    29 N4      16.2141  -0.7943   9.8943   N.1       1 RES1   0.0000
    30 N5      20.5928   5.1641  17.1572   N.pl3     1 RES1   0.0000
    31 C14     11.0173   0.0356   4.4828   C.3       1 RES1   0.0000
    32 H8      11.2791   0.9579   4.2338   H         1 RES1   0.0000
    33 H9      10.1724  -0.1755   4.0137   H         1 RES1   0.0000
    34 C15     10.3464   2.5750  11.9451   C.ar      1 RES1   0.0000
    35 H10     10.1817   3.0974  12.7209   H         1 RES1   0.0000
    36 C16     10.7760  -0.0174   5.9643   C.3       1 RES1   0.0000
    37 H11     10.1393   0.6995   6.2060   H         1 RES1   0.0000
    38 H12     11.6282   0.1707   6.4302   H         1 RES1   0.0000
    39 C17     19.4865   6.4145  15.3802   C.ar      1 RES1   0.0000
    40 H13     19.7490   7.2088  15.8296   H         1 RES1   0.0000
    41 C18     10.8288  -4.1628   6.2618   C.3       1 RES1   0.0000
    42 H14     10.0351  -4.2908   5.7029   H         1 RES1   0.0000
    43 H15     10.5821  -4.2552   7.2061   H         1 RES1   0.0000
    44 H16     11.5022  -4.8385   6.0325   H         1 RES1   0.0000
    45 C19     12.3532  -3.2199   9.2961   C.2       1 RES1   0.0000
    46 H17     12.1317  -4.1438   9.2713   H         1 RES1   0.0000
    47 C20     16.2275   4.0513  11.0710   C.2       1 RES1   0.0000
    48 H18     15.7053   4.8322  10.9336   H         1 RES1   0.0000
    49 C21     12.4354  -2.3971  10.4718   C.2       1 RES1   0.0000
    50 H19     12.2904  -2.6690  11.3706   H         1 RES1   0.0000
    51 O3      20.9291   4.0363  17.5746   O.2       1 RES1   0.0000
    52 C22     18.2774   5.3025  13.5567   C.ar      1 RES1   0.0000
    53 C23     14.6639   2.1205  10.8768   C.3       1 RES1   0.0000
    54 H20     13.9288   2.7812  10.9037   H         1 RES1   0.0000
    55 H21     14.8385   1.8265  11.8056   H         1 RES1   0.0000
    56 C24     19.8536   5.1958  15.8369   C.ar      1 RES1   0.0000
    57 C25     12.0840  -0.9136   4.0096   C.3       1 RES1   0.0000
    58 H22     12.9215  -0.7113   4.4962   H         1 RES1   0.0000
    59 H23     12.2483  -0.7469   3.0477   H         1 RES1   0.0000
    60 O4      17.3677   7.8853  12.9255   O.2       1 RES1   0.0000
    61 C26     18.6956   6.4659  14.2076   C.ar      1 RES1   0.0000
    62 N6      18.2806   7.7644  13.7675   N.pl3     1 RES1   0.0000
    63 C27     15.9154   2.7947  10.3251   C.3       1 RES1   0.0000
    64 H24     16.6838   2.1727  10.3954   H         1 RES1   0.0000
    65 H25     15.7788   3.0065   9.3674   H         1 RES1   0.0000
    66 C28     19.5422   4.0466  15.2221   C.ar      1 RES1   0.0000
    67 H26     19.8444   3.2144  15.5662   H         1 RES1   0.0000
    68 C29     18.7786   4.0980  14.0919   C.ar      1 RES1   0.0000
    69 H27     18.5749   3.2847  13.6446   H         1 RES1   0.0000
    70 O5      18.8095   8.7515  14.2376   O.2       1 RES1   0.0000
@<TRIPOS>BOND
     1     1    27    1
     2     2     5    1
     3     3     5    1
     4     4    12    1
     5     5    17    1
     6     6    16    3
     7     7    15    1
     8     8     9    1
     9    10    11    1
    10    12    17    1
    11    13    20    1
    12    14    10    1
    13    15    16    1
    14    17    18    1
    15    19    17    1
    16    20    15    1
    17    21    20    1
    18    22    13   ar
    19    23    22    1
    20    24    30    2
    21    25    13   ar
    22    26    25    1
    23    27     8   ar
    24    28     4    1
    25    29     7    3
    26    30    51    2
    27    31    32    1
    28    33    31    1
    29    34     8   ar
    30    35    34    1
    31    36     3    1
    32    37    36    1
    33    38    36    1
    34    39    40    1
    35    41     5    1
    36    42    41    1
    37    43    41    1
    38    44    41    1
    39    45    12    2
    40    46    45    1
    41    47    14    2
    42    48    47    1
    43    49    28    2
    44    50    49    1
    45    52    10    1
    46    53    15    1
    47    54    53    1
    48    55    53    1
    49    56    30    1
    50    57     2    1
    51    58    57    1
    52    59    57    1
    53    60    62    2
    54    61    39   ar
    55    62    61    1
    56    63    47    1
    57    64    63    1
    58    65    63    1
    59    66    56   ar
    60    67    66    1
    61    68    52   ar
    62    69    68    1
    63    70    62    2
    64    20    28    1
    65    22    34   ar
    66    25    27   ar
    67    31    36    1
    68    31    57    1
    69    39    56   ar
    70    45    49    1
    71    52    61   ar
    72    53    63    1
    73    66    68   ar
@<TRIPOS>SUBSTRUCTURE
     1 RES1        1 GROUP             0 ****  ****    0  
@<TRIPOS>CRYSIN
   37.1283    7.9035   10.3537   90.0000   93.7690   90.0000     5     1
