@<TRIPOS>MOLECULE
02
    52    54     1     0     0
SMALL
NO_CHARGES
****
Generated from the CSD

@<TRIPOS>ATOM
     1 O1       5.9043   3.9233  19.1317   O.3       1 RES2   0.0000
     2 O2       7.4597   1.8472  18.1696   O.3       1 RES2   0.0000
     3 C1       6.9767   5.4881  17.7338   C.3       1 RES2   0.0000
     4 C2       6.6269   4.0601  17.8952   C.3       1 RES2   0.0000
     5 C3       7.8845   3.1993  17.9619   C.3       1 RES2   0.0000
     6 C4       8.7681   3.3299  16.7332   C.3       1 RES2   0.0000
     7 C5       9.0526   4.8512  16.5201   C.3       1 RES2   0.0000
     8 C6      10.0596   5.1012  15.3839   C.3       1 RES2   0.0000
     9 C7      10.1528   6.5790  14.9406   C.3       1 RES2   0.0000
    10 C8       9.8200   7.5418  16.0553   C.3       1 RES2   0.0000
    11 C9       8.3530   7.3104  16.5137   C.3       1 RES2   0.0000
    12 C10      7.8361   5.7991  16.4879   C.3       1 RES2   0.0000
    13 C11      8.0758   8.1077  17.7704   C.3       1 RES2   0.0000
    14 C12      8.5333   9.5370  17.5961   C.2       1 RES2   0.0000
    15 C13      9.3431   9.9549  16.6514   C.2       1 RES2   0.0000
    16 C14      9.9108   9.0245  15.5927   C.3       1 RES2   0.0000
    17 C19     10.1008   2.6184  17.0517   C.3       1 RES2   0.0000
    18 C20      8.1520   2.5848  15.5410   C.3       1 RES2   0.0000
    19 C21     10.8609   7.3751  17.1894   C.3       1 RES2   0.0000
    20 C22      9.7897  11.3954  16.5524   C.3       1 RES2   0.0000
    21 C25      6.9610   5.6398  15.2225   C.3       1 RES2   0.0000
    22 H1       7.4585   5.7804  18.5236   H         1 RES2   0.0000
    23 H2       6.1573   6.0043  17.6822   H         1 RES2   0.0000
    24 H3       5.9443   3.1458  19.3865   H         1 RES2   0.0000
    25 H5       6.0641   3.7690  17.1463   H         1 RES2   0.0000
    26 H6       7.8979   1.5138  18.7775   H         1 RES2   0.0000
    27 H7       8.4050   3.4804  18.7430   H         1 RES2   0.0000
    28 H8       9.5380   5.1174  17.3293   H         1 RES2   0.0000
    29 H9       9.8067   4.5626  14.6179   H         1 RES2   0.0000
    30 H10     10.9372   4.8064  15.6744   H         1 RES2   0.0000
    31 H11     11.0522   6.7581  14.6243   H         1 RES2   0.0000
    32 H12      9.5440   6.7270  14.2004   H         1 RES2   0.0000
    33 H13      7.8168   7.7582  15.8272   H         1 RES2   0.0000
    34 H14      7.1256   8.0916  17.9641   H         1 RES2   0.0000
    35 H15      8.5430   7.7060  18.5214   H         1 RES2   0.0000
    36 H16      8.2186  10.1664  18.2051   H         1 RES2   0.0000
    37 H17     10.8633   9.2397  15.5023   H         1 RES2   0.0000
    38 H22      9.9216   1.7315  17.3744   H         1 RES2   0.0000
    39 H23     10.5753   3.1135  17.7230   H         1 RES2   0.0000
    40 H24     10.6334   2.5674  16.2533   H         1 RES2   0.0000
    41 H25      7.3217   3.0003  15.3000   H         1 RES2   0.0000
    42 H26      7.9947   1.6693  15.7820   H         1 RES2   0.0000
    43 H27      8.7560   2.6209  14.7965   H         1 RES2   0.0000
    44 H28     11.7409   7.5418  16.8429   H         1 RES2   0.0000
    45 H29     10.8186   6.4795  17.5358   H         1 RES2   0.0000
    46 H30     10.6709   7.9983  17.8952   H         1 RES2   0.0000
    47 H31     10.7036  11.4675  16.8365   H         1 RES2   0.0000
    48 H32      9.2354  11.9414  17.1141   H         1 RES2   0.0000
    49 H33      9.7135  11.6914  15.6422   H         1 RES2   0.0000
    50 H40      6.5011   4.7977  15.2548   H         1 RES2   0.0000
    51 H41      7.5178   5.6697  14.4414   H         1 RES2   0.0000
    52 H42      6.3195   6.3526  15.1860   H         1 RES2   0.0000
@<TRIPOS>BOND
     1     1     4    1
     2     2     5    1
     3     3     4    1
     4     4     5    1
     5     5     6    1
     6     6     7    1
     7     7     8    1
     8     8     9    1
     9     9    10    1
    10    10    11    1
    11    11    12    1
    12    12     3    1
    13    13    11    1
    14    14    13    1
    15    15    14    2
    16    16    10    1
    17    17     6    1
    18    18     6    1
    19    19    10    1
    20    20    15    1
    21    21    12    1
    22    22     3    1
    23    23     3    1
    24    24     1    1
    25    25     4    1
    26    26     2    1
    27    27     5    1
    28    28     7    1
    29    29     8    1
    30    30     8    1
    31    31     9    1
    32    32     9    1
    33    33    11    1
    34    34    13    1
    35    35    13    1
    36    36    14    1
    37    37    16    1
    38    38    17    1
    39    39    17    1
    40    40    17    1
    41    41    18    1
    42    42    18    1
    43    43    18    1
    44    44    19    1
    45    45    19    1
    46    46    19    1
    47    47    20    1
    48    48    20    1
    49    49    20    1
    50    50    21    1
    51    51    21    1
    52    52    21    1
    53     7    12    1
    54    15    16    1
@<TRIPOS>SUBSTRUCTURE
     1 RES2        1 GROUP             0 ****  ****    0  
