@<TRIPOS>MOLECULE
DADQAA01
    86    89     1     0     0
SMALL
NO_CHARGES
****
Generated from the CSD

@<TRIPOS>ATOM
     1 Br1      5.2030  16.5129  10.6043   Br        1 RES1   0.0000
     2 O1       5.9043   3.9233  19.1317   O.3       1 RES1   0.0000
     3 O2       7.4597   1.8472  18.1696   O.3       1 RES1   0.0000
     4 O3      10.9360  10.6366  13.2598   O.3       1 RES1   0.0000
     5 O4       7.5856   7.9523  11.7128   O.2       1 RES1   0.0000
     6 O5       9.5852   7.1910  11.1748   O.3       1 RES1   0.0000
     7 O6       9.4762  11.3319   9.6900   O.2       1 RES1   0.0000
     8 N1       8.5769  10.5893  11.5858   N.am      1 RES1   0.0000
     9 C1       6.9767   5.4881  17.7338   C.3       1 RES1   0.0000
    10 C2       6.6269   4.0601  17.8952   C.3       1 RES1   0.0000
    11 C3       7.8845   3.1993  17.9619   C.3       1 RES1   0.0000
    12 C4       8.7681   3.3299  16.7332   C.3       1 RES1   0.0000
    13 C5       9.0526   4.8512  16.5201   C.3       1 RES1   0.0000
    14 C6      10.0596   5.1012  15.3839   C.3       1 RES1   0.0000
    15 C7      10.1528   6.5790  14.9406   C.3       1 RES1   0.0000
    16 C8       9.8200   7.5418  16.0553   C.3       1 RES1   0.0000
    17 C9       8.3530   7.3104  16.5137   C.3       1 RES1   0.0000
    18 C10      7.8361   5.7991  16.4879   C.3       1 RES1   0.0000
    19 C11      8.0758   8.1077  17.7704   C.3       1 RES1   0.0000
    20 C12      8.5333   9.5370  17.5961   C.2       1 RES1   0.0000
    21 C13      9.3431   9.9549  16.6514   C.2       1 RES1   0.0000
    22 C14      9.9108   9.0245  15.5927   C.3       1 RES1   0.0000
    23 C15      9.2499   9.3342  14.2520   C.3       1 RES1   0.0000
    24 C16     10.1964   9.4561  13.0879   C.3       1 RES1   0.0000
    25 C17      9.4738   9.4648  11.7279   C.3       1 RES1   0.0000
    26 C18      8.7476   8.1525  11.5105   C.2       1 RES1   0.0000
    27 C19     10.1008   2.6184  17.0517   C.3       1 RES1   0.0000
    28 C20      8.1520   2.5848  15.5410   C.3       1 RES1   0.0000
    29 C21     10.8609   7.3751  17.1894   C.3       1 RES1   0.0000
    30 C22      9.7897  11.3954  16.5524   C.3       1 RES1   0.0000
    31 C23     12.0156  10.8082  12.3734   C.3       1 RES1   0.0000
    32 C24      9.0187   5.8538  11.0263   C.3       1 RES1   0.0000
    33 C25      6.9610   5.6398  15.2225   C.3       1 RES1   0.0000
    34 C26      8.6701  11.4489  10.5895   C.2       1 RES1   0.0000
    35 C27      7.7768  12.6530  10.6347   C.ar      1 RES1   0.0000
    36 C28      7.3653  13.2015   9.4533   C.ar      1 RES1   0.0000
    37 C29      6.5555  14.3670   9.4748   C.ar      1 RES1   0.0000
    38 C30      6.2844  14.9840  10.6067   C.ar      1 RES1   0.0000
    39 C31      6.7165  14.4690  11.7860   C.ar      1 RES1   0.0000
    40 C32      7.4488  13.2923  11.7881   C.ar      1 RES1   0.0000
    41 H1       7.4585   5.7804  18.5236   H         1 RES1   0.0000
    42 H2       6.1573   6.0043  17.6822   H         1 RES1   0.0000
    43 H3       5.9443   3.1458  19.3865   H         1 RES1   0.0000
    44 H4       7.9584  10.7013  12.1733   H         1 RES1   0.0000
    45 H5       6.0641   3.7690  17.1463   H         1 RES1   0.0000
    46 H6       7.8979   1.5138  18.7775   H         1 RES1   0.0000
    47 H7       8.4050   3.4804  18.7430   H         1 RES1   0.0000
    48 H8       9.5380   5.1174  17.3293   H         1 RES1   0.0000
    49 H9       9.8067   4.5626  14.6179   H         1 RES1   0.0000
    50 H10     10.9372   4.8064  15.6744   H         1 RES1   0.0000
    51 H11     11.0522   6.7581  14.6243   H         1 RES1   0.0000
    52 H12      9.5440   6.7270  14.2004   H         1 RES1   0.0000
    53 H13      7.8168   7.7582  15.8272   H         1 RES1   0.0000
    54 H14      7.1256   8.0916  17.9641   H         1 RES1   0.0000
    55 H15      8.5430   7.7060  18.5214   H         1 RES1   0.0000
    56 H16      8.2186  10.1664  18.2051   H         1 RES1   0.0000
    57 H17     10.8633   9.2397  15.5023   H         1 RES1   0.0000
    58 H18      8.6096   8.6327  14.0541   H         1 RES1   0.0000
    59 H19      8.7560  10.1652  14.3360   H         1 RES1   0.0000
    60 H20     10.8137   8.6961  13.1072   H         1 RES1   0.0000
    61 H21     10.1577   9.5432  11.0306   H         1 RES1   0.0000
    62 H22      9.9216   1.7315  17.3744   H         1 RES1   0.0000
    63 H23     10.5753   3.1135  17.7230   H         1 RES1   0.0000
    64 H24     10.6334   2.5674  16.2533   H         1 RES1   0.0000
    65 H25      7.3217   3.0003  15.3000   H         1 RES1   0.0000
    66 H26      7.9947   1.6693  15.7820   H         1 RES1   0.0000
    67 H27      8.7560   2.6209  14.7965   H         1 RES1   0.0000
    68 H28     11.7409   7.5418  16.8429   H         1 RES1   0.0000
    69 H29     10.8186   6.4795  17.5358   H         1 RES1   0.0000
    70 H30     10.6709   7.9983  17.8952   H         1 RES1   0.0000
    71 H31     10.7036  11.4675  16.8365   H         1 RES1   0.0000
    72 H32      9.2354  11.9414  17.1141   H         1 RES1   0.0000
    73 H33      9.7135  11.6914  15.6422   H         1 RES1   0.0000
    74 H34     12.6075  11.4824  12.7156   H         1 RES1   0.0000
    75 H35     11.6852  11.0794  11.5127   H         1 RES1   0.0000
    76 H36     12.4925   9.9786  12.2852   H         1 RES1   0.0000
    77 H37      8.3154   5.8749  10.3743   H         1 RES1   0.0000
    78 H38      8.6640   5.5615  11.8699   H         1 RES1   0.0000
    79 H39      9.7038   5.2468  10.7401   H         1 RES1   0.0000
    80 H40      6.5011   4.7977  15.2548   H         1 RES1   0.0000
    81 H41      7.5178   5.6697  14.4414   H         1 RES1   0.0000
    82 H42      6.3195   6.3526  15.1860   H         1 RES1   0.0000
    83 H43      7.6122  12.8147   8.6442   H         1 RES1   0.0000
    84 H44      6.2106  14.7004   8.6786   H         1 RES1   0.0000
    85 H45      6.5216  14.9032  12.5865   H         1 RES1   0.0000
    86 H46      7.7224  12.9303  12.5994   H         1 RES1   0.0000
@<TRIPOS>BOND
     1     1    38    1
     2     2    10    1
     3     3    11    1
     4     4    24    1
     5     5    26    2
     6     6    26    1
     7     7    34    2
     8     8    25    1
     9     9    10    1
    10    10    11    1
    11    11    12    1
    12    12    13    1
    13    13    14    1
    14    14    15    1
    15    15    16    1
    16    16    17    1
    17    17    18    1
    18    18     9    1
    19    19    17    1
    20    20    19    1
    21    21    20    2
    22    22    16    1
    23    23    22    1
    24    24    23    1
    25    25    24    1
    26    26    25    1
    27    27    12    1
    28    28    12    1
    29    29    16    1
    30    30    21    1
    31    31     4    1
    32    32     6    1
    33    33    18    1
    34    34     8   am
    35    35    34    1
    36    36    35   ar
    37    37    36   ar
    38    38    37   ar
    39    39    38   ar
    40    40    35   ar
    41    41     9    1
    42    42     9    1
    43    43     2    1
    44    44     8    1
    45    45    10    1
    46    46     3    1
    47    47    11    1
    48    48    13    1
    49    49    14    1
    50    50    14    1
    51    51    15    1
    52    52    15    1
    53    53    17    1
    54    54    19    1
    55    55    19    1
    56    56    20    1
    57    57    22    1
    58    58    23    1
    59    59    23    1
    60    60    24    1
    61    61    25    1
    62    62    27    1
    63    63    27    1
    64    64    27    1
    65    65    28    1
    66    66    28    1
    67    67    28    1
    68    68    29    1
    69    69    29    1
    70    70    29    1
    71    71    30    1
    72    72    30    1
    73    73    30    1
    74    74    31    1
    75    75    31    1
    76    76    31    1
    77    77    32    1
    78    78    32    1
    79    79    32    1
    80    80    33    1
    81    81    33    1
    82    82    33    1
    83    83    36    1
    84    84    37    1
    85    85    39    1
    86    86    40    1
    87    13    18    1
    88    21    22    1
    89    39    40   ar
@<TRIPOS>SUBSTRUCTURE
     1 RES1        1 GROUP             0 ****  ****    0  
@<TRIPOS>CRYSIN
   12.1040   12.4390   21.5190   90.0000   90.0000   90.0000    19     1
