@<TRIPOS>MOLECULE
01
    11    11     1     0     0
SMALL
NO_CHARGES
****
Generated from the CSD

@<TRIPOS>ATOM
     1 Br1      5.2030  16.5129  10.6043   Br        1 RES1   0.0000
     2 C27      7.7768  12.6530  10.6347   C.ar      1 RES1   0.0000
     3 C28      7.3653  13.2015   9.4533   C.ar      1 RES1   0.0000
     4 C29      6.5555  14.3670   9.4748   C.ar      1 RES1   0.0000
     5 C30      6.2844  14.9840  10.6067   C.ar      1 RES1   0.0000
     6 C31      6.7165  14.4690  11.7860   C.ar      1 RES1   0.0000
     7 C32      7.4488  13.2923  11.7881   C.ar      1 RES1   0.0000
     8 H43      7.6122  12.8147   8.6442   H         1 RES1   0.0000
     9 H44      6.2106  14.7004   8.6786   H         1 RES1   0.0000
    10 H45      6.5216  14.9032  12.5865   H         1 RES1   0.0000
    11 H46      7.7224  12.9303  12.5994   H         1 RES1   0.0000
@<TRIPOS>BOND
     1     1     5    1
     2     3     2   ar
     3     4     3   ar
     4     5     4   ar
     5     6     5   ar
     6     7     2   ar
     7     8     3    1
     8     9     4    1
     9    10     6    1
    10    11     7    1
    11     6     7   ar
@<TRIPOS>SUBSTRUCTURE
     1 RES1        1 GROUP             0 ****  ****    0  
