@<TRIPOS>MOLECULE
01
    15    15     1     0     0
SMALL
NO_CHARGES
****
Generated from the CSD

@<TRIPOS>ATOM
     1 N1       6.6543   9.0320   6.7126   N.pl3     1 RES1   0.0000
     2 N2       4.0446   7.6523   2.8242   N.pl3     1 RES1   0.0000
     3 O3       7.6169   9.2021   5.9597   O.2       1 RES1   0.0000
     4 O4       6.6836   9.2582   7.9169   O.2       1 RES1   0.0000
     5 O5       4.9583   8.0676   2.1191   O.2       1 RES1   0.0000
     6 O6       3.0287   7.0885   2.4008   O.2       1 RES1   0.0000
     7 C10      3.2660   7.5150   6.4657   C.ar      1 RES1   0.0000
     8 C11      3.1181   7.3924   5.0914   C.ar      1 RES1   0.0000
     9 H13      2.3260   7.0238   4.7199   H         1 RES1   0.0000
    10 C12      4.1549   7.8224   4.2778   C.ar      1 RES1   0.0000
    11 C13      5.3307   8.3646   4.7725   C.ar      1 RES1   0.0000
    12 H14      6.0357   8.6392   4.1977   H         1 RES1   0.0000
    13 C14      5.4238   8.4820   6.1451   C.ar      1 RES1   0.0000
    14 C15      4.4200   8.0840   7.0012   C.ar      1 RES1   0.0000
    15 H15      4.5131   8.1954   7.9420   H         1 RES1   0.0000
@<TRIPOS>BOND
     1     1     3    2
     2     2     5    2
     3     4     1    2
     4     6     2    2
     5     8     7   ar
     6     9     8    1
     7    10     2    1
     8    11    10   ar
     9    12    11    1
    10    13     1    1
    11    14     7   ar
    12    15    14    1
    13     8    10   ar
    14    11    13   ar
    15    13    14   ar
@<TRIPOS>SUBSTRUCTURE
     1 RES1        1 GROUP             0 ****  ****    0  
