@<TRIPOS>MOLECULE
02
    29    29     1     0     0
SMALL
NO_CHARGES
****
Generated from the CSD

@<TRIPOS>ATOM
     1 C17      6.0056   3.8102   3.2760   C.3       1 RES2   0.0000
     2 H16      6.3022   4.7314   3.5298   H         1 RES2   0.0000
     3 C18      4.8727   3.8983   2.2656   C.3       1 RES2   0.0000
     4 H17      4.1399   4.4465   2.6433   H         1 RES2   0.0000
     5 H18      4.5176   2.9908   2.0928   H         1 RES2   0.0000
     6 C19      5.3464   4.5182   0.9480   C.3       1 RES2   0.0000
     7 H19      5.6723   5.4455   1.1375   H         1 RES2   0.0000
     8 C20      4.1902   4.6080  -0.0619   C.3       1 RES2   0.0000
     9 H20      4.5093   5.0284  -0.8865   H         1 RES2   0.0000
    10 H21      3.4649   5.1459   0.3198   H         1 RES2   0.0000
    11 H22      3.8599   3.7074  -0.2591   H         1 RES2   0.0000
    12 C21      6.5079   3.7040   0.4190   C.3       1 RES2   0.0000
    13 H23      6.8383   4.1098  -0.4210   H         1 RES2   0.0000
    14 H24      6.1994   2.7853   0.2145   H         1 RES2   0.0000
    15 C22      7.6492   3.6435   1.4390   C.3       1 RES2   0.0000
    16 H25      7.9885   4.5588   1.6070   H         1 RES2   0.0000
    17 H26      8.3932   3.1056   1.0686   H         1 RES2   0.0000
    18 C23      7.1867   3.0202   2.7716   C.3       1 RES2   0.0000
    19 H27      6.8668   2.0929   2.5745   H         1 RES2   0.0000
    20 C24      8.3091   2.9097   3.8273   C.3       1 RES2   0.0000
    21 H28      7.8796   2.5902   4.6713   H         1 RES2   0.0000
    22 C25      8.9653   4.2505   4.1467   C.3       1 RES2   0.0000
    23 H29      9.6478   4.1236   4.8372   H         1 RES2   0.0000
    24 H30      8.2851   4.8782   4.4689   H         1 RES2   0.0000
    25 H31      9.3835   4.6106   3.3355   H         1 RES2   0.0000
    26 C26      9.3497   1.8589   3.4379   C.3       1 RES2   0.0000
    27 H32      9.8002   2.1361   2.6109   H         1 RES2   0.0000
    28 H33      8.9067   0.9972   3.2950   H         1 RES2   0.0000
    29 H34     10.0104   1.7708   4.1572   H         1 RES2   0.0000
@<TRIPOS>BOND
     1     1     2    1
     2     3     1    1
     3     4     3    1
     4     5     3    1
     5     6     3    1
     6     7     6    1
     7     8     6    1
     8     9     8    1
     9    10     8    1
    10    11     8    1
    11    12     6    1
    12    13    12    1
    13    14    12    1
    14    15    12    1
    15    16    15    1
    16    17    15    1
    17    18     1    1
    18    19    18    1
    19    20    18    1
    20    21    20    1
    21    22    20    1
    22    23    22    1
    23    24    22    1
    24    25    22    1
    25    26    20    1
    26    27    26    1
    27    28    26    1
    28    29    26    1
    29    15    18    1
@<TRIPOS>SUBSTRUCTURE
     1 RES2        1 GROUP             0 ****  ****    0  
