@<TRIPOS>MOLECULE
DAZPAY
    77    81     1     0     0
SMALL
NO_CHARGES
****
Generated from the CSD

@<TRIPOS>ATOM
     1 O1      -0.4179  -3.0002  19.5455   O.3       1 RES1   0.0000
     2 O2       1.5425   0.7106  18.2283   O.2       1 RES1   0.0000
     3 O3       4.7766   1.2987  14.1691   O.3       1 RES1   0.0000
     4 H1       5.2520   1.8956  13.8697   H         1 RES1   0.0000
     5 O4       1.4378  -3.4854  18.3730   O.2       1 RES1   0.0000
     6 O5       2.1017   2.9071  13.1529   O.2       1 RES1   0.0000
     7 O6       4.8935   9.5193  12.5313   O.3       1 RES1   0.0000
     8 N1       3.0858   3.8464  15.0634   N.am      1 RES1   0.0000
     9 N2       0.5784  -1.3070  18.4818   N.am      1 RES1   0.0000
    10 C1       3.7113   1.8618  14.8738   C.3       1 RES1   0.0000
    11 C2      -0.1047  -2.4908  22.2984   C.ar      1 RES1   0.0000
    12 H2      -0.4729  -3.3236  22.1118   H         1 RES1   0.0000
    13 C3       4.0271   3.0385  15.8499   C.3       1 RES1   0.0000
    14 H3       3.7462   2.8809  16.7657   H         1 RES1   0.0000
    15 H4       4.9449   3.3498  15.8127   H         1 RES1   0.0000
    16 C4       2.8171   2.9072  14.1452   C.2       1 RES1   0.0000
    17 C5       2.7281  -1.1191  17.2265   C.3       1 RES1   0.0000
    18 H5       2.3503  -1.7105  16.5560   H         1 RES1   0.0000
    19 H6       3.2786  -1.6530  17.8222   H         1 RES1   0.0000
    20 C6       3.6014  -0.0650  16.5371   C.3       1 RES1   0.0000
    21 H7       3.9443   0.5452  17.2090   H         1 RES1   0.0000
    22 H8       4.3613  -0.5077  16.1260   H         1 RES1   0.0000
    23 C7      -0.2504  -1.4442  21.3845   C.ar      1 RES1   0.0000
    24 C8      -0.7136  -0.7565  18.9394   C.3       1 RES1   0.0000
    25 H9      -0.5837   0.1438  19.3034   H         1 RES1   0.0000
    26 C9      -2.4864  -1.9519  20.3500   C.ar      1 RES1   0.0000
    27 C10      1.6131  -0.4802  18.0160   C.2       1 RES1   0.0000
    28 C11     -3.1975  -0.8603  20.8424   C.ar      1 RES1   0.0000
    29 H10     -2.7543  -0.0625  21.0235   H         1 RES1   0.0000
    30 C12     -1.7318  -0.7140  17.7752   C.3       1 RES1   0.0000
    31 H11     -2.6155  -0.5752  18.1752   H         1 RES1   0.0000
    32 C13      3.3222   6.2995  14.7090   C.ar      1 RES1   0.0000
    33 C14      0.9640  -0.0025  22.8917   C.ar      1 RES1   0.0000
    34 H12      1.3139   0.8365  23.0913   H         1 RES1   0.0000
    35 C15     -0.9998  -1.7543  20.0835   C.3       1 RES1   0.0000
    36 C16     -1.4517   0.4964  16.8817   C.3       1 RES1   0.0000
    37 H13     -1.4064   1.2892  17.4214   H         1 RES1   0.0000
    38 H14     -0.6151   0.3714  16.4259   H         1 RES1   0.0000
    39 H15     -2.1566   0.5877  16.2375   H         1 RES1   0.0000
    40 C17      0.5941  -2.2882  23.4929   C.ar      1 RES1   0.0000
    41 H16      0.6997  -2.9935  24.0894   H         1 RES1   0.0000
    42 C18      2.8651   0.7402  15.4685   C.3       1 RES1   0.0000
    43 H17      2.5902   0.1413  14.7563   H         1 RES1   0.0000
    44 H18      2.0633   1.1229  15.8579   H         1 RES1   0.0000
    45 C19      1.1324  -1.0466  23.7945   C.ar      1 RES1   0.0000
    46 H19      1.5983  -0.9140  24.5884   H         1 RES1   0.0000
    47 C20      0.6334  -2.6734  18.7483   C.2       1 RES1   0.0000
    48 C21     -1.8112  -2.0044  16.9555   C.3       1 RES1   0.0000
    49 H20     -1.9874  -2.7459  17.5408   H         1 RES1   0.0000
    50 H21     -2.5187  -1.9306  16.3118   H         1 RES1   0.0000
    51 H22     -0.9780  -2.1469  16.5002   H         1 RES1   0.0000
    52 C22     -3.1521  -3.1410  20.1016   C.ar      1 RES1   0.0000
    53 H23     -2.6845  -3.8800  19.7838   H         1 RES1   0.0000
    54 C23      0.2835  -0.1938  21.7014   C.ar      1 RES1   0.0000
    55 H24      0.1806   0.5152  21.1084   H         1 RES1   0.0000
    56 C24      2.5205   5.1629  15.2909   C.3       1 RES1   0.0000
    57 H25      2.4341   5.3017  16.2481   H         1 RES1   0.0000
    58 H26      1.6280   5.1867  14.9102   H         1 RES1   0.0000
    59 C25     -4.5654  -0.9541  21.0673   C.ar      1 RES1   0.0000
    60 H27     -5.0348  -0.2201  21.3925   H         1 RES1   0.0000
    61 C26     -5.2285  -2.1344  20.8085   C.ar      1 RES1   0.0000
    62 H28     -6.1445  -2.1957  20.9545   H         1 RES1   0.0000
    63 C27     -4.5314  -3.2273  20.3309   C.ar      1 RES1   0.0000
    64 H29     -4.9798  -4.0238  20.1608   H         1 RES1   0.0000
    65 C28      3.3754   7.5412  15.3100   C.ar      1 RES1   0.0000
    66 H30      3.0526   7.6537  16.1737   H         1 RES1   0.0000
    67 C29      4.4119   8.4890  13.3401   C.ar      1 RES1   0.0000
    68 C30      3.8954   6.1882  13.4412   C.ar      1 RES1   0.0000
    69 H31      3.9102   5.3530  13.0308   H         1 RES1   0.0000
    70 C31      4.4389   7.2623  12.7723   C.ar      1 RES1   0.0000
    71 H32      4.8228   7.1448  11.9345   H         1 RES1   0.0000
    72 C32      3.9277   8.6590  14.6004   C.ar      1 RES1   0.0000
    73 H33      3.9547   9.4980  15.0005   H         1 RES1   0.0000
    74 C33      4.7007  10.8097  12.9685   C.3       1 RES1   0.0000
    75 H34      5.0732  11.4224  12.3301   H         1 RES1   0.0000
    76 H35      3.7602  10.9773  13.0627   H         1 RES1   0.0000
    77 H36      5.1334  10.9285  13.8166   H         1 RES1   0.0000
@<TRIPOS>BOND
     1     1    35    1
     2     2    27    2
     3     3     4    1
     4     5    47    2
     5     6    16    2
     6     7    67    1
     7     8    13    1
     8     9    24    1
     9    10     3    1
    10    11    12    1
    11    13    10    1
    12    14    13    1
    13    15    13    1
    14    16     8   am
    15    17    18    1
    16    19    17    1
    17    20    17    1
    18    21    20    1
    19    22    20    1
    20    23    11   ar
    21    24    25    1
    22    26    28   ar
    23    27     9   am
    24    28    29    1
    25    30    24    1
    26    31    30    1
    27    32    56    1
    28    33    34    1
    29    35    23    1
    30    36    30    1
    31    37    36    1
    32    38    36    1
    33    39    36    1
    34    40    11   ar
    35    41    40    1
    36    42    10    1
    37    43    42    1
    38    44    42    1
    39    45    33   ar
    40    46    45    1
    41    47     1    1
    42    48    30    1
    43    49    48    1
    44    50    48    1
    45    51    48    1
    46    52    26   ar
    47    53    52    1
    48    54    23   ar
    49    55    54    1
    50    56     8    1
    51    57    56    1
    52    58    56    1
    53    59    28   ar
    54    60    59    1
    55    61    59   ar
    56    62    61    1
    57    63    52   ar
    58    64    63    1
    59    65    32   ar
    60    66    65    1
    61    67    70   ar
    62    68    32   ar
    63    69    68    1
    64    70    68   ar
    65    71    70    1
    66    72    65   ar
    67    73    72    1
    68    74     7    1
    69    75    74    1
    70    76    74    1
    71    77    74    1
    72     9    47   am
    73    10    16    1
    74    17    27    1
    75    20    42    1
    76    24    35    1
    77    26    35    1
    78    33    54   ar
    79    40    45   ar
    80    61    63   ar
    81    67    72   ar
@<TRIPOS>SUBSTRUCTURE
     1 RES1        1 GROUP             0 ****  ****    0  
@<TRIPOS>CRYSIN
    8.7243   12.5040   26.5448   90.0000   90.0000   90.0000    19     1
