@<TRIPOS>MOLECULE
02
    15    15     1     0     0
SMALL
NO_CHARGES
****
Generated from the CSD

@<TRIPOS>ATOM
     1 O6       4.8935   9.5193  12.5313   O.3       1 RES2   0.0000
     2 C13      3.3222   6.2995  14.7090   C.ar      1 RES2   0.0000
     3 C28      3.3754   7.5412  15.3100   C.ar      1 RES2   0.0000
     4 H30      3.0526   7.6537  16.1737   H         1 RES2   0.0000
     5 C29      4.4119   8.4890  13.3401   C.ar      1 RES2   0.0000
     6 C30      3.8954   6.1882  13.4412   C.ar      1 RES2   0.0000
     7 H31      3.9102   5.3530  13.0308   H         1 RES2   0.0000
     8 C31      4.4389   7.2623  12.7723   C.ar      1 RES2   0.0000
     9 H32      4.8228   7.1448  11.9345   H         1 RES2   0.0000
    10 C32      3.9277   8.6590  14.6004   C.ar      1 RES2   0.0000
    11 H33      3.9547   9.4980  15.0005   H         1 RES2   0.0000
    12 C33      4.7007  10.8097  12.9685   C.3       1 RES2   0.0000
    13 H34      5.0732  11.4224  12.3301   H         1 RES2   0.0000
    14 H35      3.7602  10.9773  13.0627   H         1 RES2   0.0000
    15 H36      5.1334  10.9285  13.8166   H         1 RES2   0.0000
@<TRIPOS>BOND
     1     1     5    1
     2     3     2   ar
     3     4     3    1
     4     5     8   ar
     5     6     2   ar
     6     7     6    1
     7     8     6   ar
     8     9     8    1
     9    10     3   ar
    10    11    10    1
    11    12     1    1
    12    13    12    1
    13    14    12    1
    14    15    12    1
    15     5    10   ar
@<TRIPOS>SUBSTRUCTURE
     1 RES2        1 GROUP             0 ****  ****    0  
