@<TRIPOS>MOLECULE
01
    39    41     1     0     0
SMALL
NO_CHARGES
****
Generated from the CSD

@<TRIPOS>ATOM
     1 O1      -0.4179  -3.0002  19.5455   O.3       1 RES1   0.0000
     2 O4       1.4378  -3.4854  18.3730   O.2       1 RES1   0.0000
     3 N2       0.5784  -1.3070  18.4818   N.am      1 RES1   0.0000
     4 C2      -0.1047  -2.4908  22.2984   C.ar      1 RES1   0.0000
     5 H2      -0.4729  -3.3236  22.1118   H         1 RES1   0.0000
     6 C7      -0.2504  -1.4442  21.3845   C.ar      1 RES1   0.0000
     7 C8      -0.7136  -0.7565  18.9394   C.3       1 RES1   0.0000
     8 H9      -0.5837   0.1438  19.3034   H         1 RES1   0.0000
     9 C9      -2.4864  -1.9519  20.3500   C.ar      1 RES1   0.0000
    10 C11     -3.1975  -0.8603  20.8424   C.ar      1 RES1   0.0000
    11 H10     -2.7543  -0.0625  21.0235   H         1 RES1   0.0000
    12 C12     -1.7318  -0.7140  17.7752   C.3       1 RES1   0.0000
    13 H11     -2.6155  -0.5752  18.1752   H         1 RES1   0.0000
    14 C14      0.9640  -0.0025  22.8917   C.ar      1 RES1   0.0000
    15 H12      1.3139   0.8365  23.0913   H         1 RES1   0.0000
    16 C15     -0.9998  -1.7543  20.0835   C.3       1 RES1   0.0000
    17 C16     -1.4517   0.4964  16.8817   C.3       1 RES1   0.0000
    18 H13     -1.4064   1.2892  17.4214   H         1 RES1   0.0000
    19 H14     -0.6151   0.3714  16.4259   H         1 RES1   0.0000
    20 H15     -2.1566   0.5877  16.2375   H         1 RES1   0.0000
    21 C17      0.5941  -2.2882  23.4929   C.ar      1 RES1   0.0000
    22 H16      0.6997  -2.9935  24.0894   H         1 RES1   0.0000
    23 C19      1.1324  -1.0466  23.7945   C.ar      1 RES1   0.0000
    24 H19      1.5983  -0.9140  24.5884   H         1 RES1   0.0000
    25 C20      0.6334  -2.6734  18.7483   C.2       1 RES1   0.0000
    26 C21     -1.8112  -2.0044  16.9555   C.3       1 RES1   0.0000
    27 H20     -1.9874  -2.7459  17.5408   H         1 RES1   0.0000
    28 H21     -2.5187  -1.9306  16.3118   H         1 RES1   0.0000
    29 H22     -0.9780  -2.1469  16.5002   H         1 RES1   0.0000
    30 C22     -3.1521  -3.1410  20.1016   C.ar      1 RES1   0.0000
    31 H23     -2.6845  -3.8800  19.7838   H         1 RES1   0.0000
    32 C23      0.2835  -0.1938  21.7014   C.ar      1 RES1   0.0000
    33 H24      0.1806   0.5152  21.1084   H         1 RES1   0.0000
    34 C25     -4.5654  -0.9541  21.0673   C.ar      1 RES1   0.0000
    35 H27     -5.0348  -0.2201  21.3925   H         1 RES1   0.0000
    36 C26     -5.2285  -2.1344  20.8085   C.ar      1 RES1   0.0000
    37 H28     -6.1445  -2.1957  20.9545   H         1 RES1   0.0000
    38 C27     -4.5314  -3.2273  20.3309   C.ar      1 RES1   0.0000
    39 H29     -4.9798  -4.0238  20.1608   H         1 RES1   0.0000
@<TRIPOS>BOND
     1     1    16    1
     2     2    25    2
     3     3     7    1
     4     4     5    1
     5     6     4   ar
     6     7     8    1
     7     9    10   ar
     8    10    11    1
     9    12     7    1
    10    13    12    1
    11    14    15    1
    12    16     6    1
    13    17    12    1
    14    18    17    1
    15    19    17    1
    16    20    17    1
    17    21     4   ar
    18    22    21    1
    19    23    14   ar
    20    24    23    1
    21    25     1    1
    22    26    12    1
    23    27    26    1
    24    28    26    1
    25    29    26    1
    26    30     9   ar
    27    31    30    1
    28    32     6   ar
    29    33    32    1
    30    34    10   ar
    31    35    34    1
    32    36    34   ar
    33    37    36    1
    34    38    30   ar
    35    39    38    1
    36     3    25   am
    37     7    16    1
    38     9    16    1
    39    14    32   ar
    40    21    23   ar
    41    36    38   ar
@<TRIPOS>SUBSTRUCTURE
     1 RES1        1 GROUP             0 ****  ****    0  
