@<TRIPOS>MOLECULE
01
    29    30     1     0     0
SMALL
NO_CHARGES
****
Generated from the CSD

@<TRIPOS>ATOM
     1 O1       2.8870   2.9325   6.2909   O.3       1 RES1   0.0000
     2 O4       1.7042   4.8669   5.6966   O.3       1 RES1   0.0000
     3 C1       2.6747   6.8321   4.7505   C.ar      1 RES1   0.0000
     4 C3       1.6316   3.4362   5.8335   C.3       1 RES1   0.0000
     5 C6       2.7622   5.3268   4.8475   C.3       1 RES1   0.0000
     6 C8       3.0729   7.4468   3.5792   C.ar      1 RES1   0.0000
     7 C9       4.1322   4.7978   5.3079   C.3       1 RES1   0.0000
     8 C12      4.0033   3.2829   5.4705   C.3       1 RES1   0.0000
     9 C15      1.1798   2.7891   4.5319   C.3       1 RES1   0.0000
    10 C17      2.4928   9.5998   4.4610   C.ar      1 RES1   0.0000
    11 C23      2.9750   8.8174   3.4353   C.ar      1 RES1   0.0000
    12 C24      0.6678   3.1847   6.9608   C.3       1 RES1   0.0000
    13 C28      2.0951   8.9933   5.6371   C.ar      1 RES1   0.0000
    14 C29      2.1778   7.6214   5.7748   C.ar      1 RES1   0.0000
    15 H1       3.9066   2.8450   4.5487   H         1 RES1   0.0000
    16 H3       4.7123   4.9821   4.5450   H         1 RES1   0.0000
    17 H5       0.9877   1.8057   4.6802   H         1 RES1   0.0000
    18 H9       3.3989   6.8865   2.8443   H         1 RES1   0.0000
    19 H11      2.6172   4.9503   3.9312   H         1 RES1   0.0000
    20 H20      1.8978   7.1945   6.5819   H         1 RES1   0.0000
    21 H26      1.8182   2.8885   3.8070   H         1 RES1   0.0000
    22 H27      0.3918   3.2165   4.2162   H         1 RES1   0.0000
    23 H28      0.9953   3.6734   7.7784   H         1 RES1   0.0000
    24 H29      1.7483   9.5357   6.3809   H         1 RES1   0.0000
    25 H30      4.7621   2.9002   5.9188   H         1 RES1   0.0000
    26 H31      2.4189  10.5616   4.3532   H         1 RES1   0.0000
    27 H32      0.6390   2.2040   7.1537   H         1 RES1   0.0000
    28 H37     -0.2165   3.4826   6.7152   H         1 RES1   0.0000
    29 H38      3.2111   9.2077   2.5959   H         1 RES1   0.0000
@<TRIPOS>BOND
     1     1     4    1
     2     2     4    1
     3     3     5    1
     4     4     9    1
     5     5     2    1
     6     6     3   ar
     7     7     5    1
     8     8     1    1
     9     9    17    1
    10    10    11   ar
    11    11     6   ar
    12    12     4    1
    13    13    10   ar
    14    14     3   ar
    15    15     8    1
    16    16     7    1
    17    18     6    1
    18    19     5    1
    19    20    14    1
    20    21     9    1
    21    22     9    1
    22    23    12    1
    23    24    13    1
    24    25     8    1
    25    26    10    1
    26    27    12    1
    27    28    12    1
    28    29    11    1
    29     7     8    1
    30    13    14   ar
@<TRIPOS>SUBSTRUCTURE
     1 RES1        1 GROUP             0 ****  ****    0  
