@<TRIPOS>MOLECULE
02
    14    14     1     0     0
SMALL
NO_CHARGES
****
Generated from the CSD

@<TRIPOS>ATOM
     1 C4      11.7916   9.2102   9.3063   C.ar      1 RES2   0.0000
     2 C10     10.4146   9.1170   9.1133   C.ar      1 RES2   0.0000
     3 C13     12.3927  10.4396   9.5095   C.ar      1 RES2   0.0000
     4 C18      9.6667  10.2880   9.1060   C.ar      1 RES2   0.0000
     5 C20     11.6366  11.5910   9.5299   C.ar      1 RES2   0.0000
     6 C21     10.2753  11.5148   9.3190   C.ar      1 RES2   0.0000
     7 C30      9.7785   7.7631   8.9633   C.3       1 RES2   0.0000
     8 H8      12.3532   8.3994   9.2819   H         1 RES2   0.0000
     9 H10      8.7483  10.2319   8.9713   H         1 RES2   0.0000
    10 H17     10.3788   7.1409   8.4817   H         1 RES2   0.0000
    11 H24      9.5855   7.3434   9.8463   H         1 RES2   0.0000
    12 H34     12.0294  12.4493   9.7166   H         1 RES2   0.0000
    13 H36     13.2968  10.5013   9.6454   H         1 RES2   0.0000
    14 H39      9.7733  12.3288   9.2983   H         1 RES2   0.0000
@<TRIPOS>BOND
     1     1     2   ar
     2     2     4   ar
     3     3     1   ar
     4     4     6   ar
     5     5     3   ar
     6     6     5   ar
     7     8     1    1
     8     9     4    1
     9    10     7    1
    10    11     7    1
    11    12     5    1
    12    13     3    1
    13    14     6    1
    14     2     7    1
@<TRIPOS>SUBSTRUCTURE
     1 RES2        1 GROUP             0 ****  ****    0  
