@<TRIPOS>MOLECULE
02
    16    17     1     0     0
SMALL
NO_CHARGES
****
Generated from the CSD

@<TRIPOS>ATOM
     1 N4      -7.1179  -0.3974   3.0397   N.ar      1 RES2   0.0000
     2 C12     -7.4984   0.8942   2.8306   C.ar      1 RES2   0.0000
     3 C19     -7.8965  -1.3432   2.5528   C.ar      1 RES2   0.0000
     4 H12     -7.6336  -2.2465   2.6843   H         1 RES2   0.0000
     5 C20     -6.6797   1.9467   3.3399   C.ar      1 RES2   0.0000
     6 C22     -9.0063   2.6064   1.9306   C.ar      1 RES2   0.0000
     7 H15     -9.7961   2.8410   1.4571   H         1 RES2   0.0000
     8 C23     -7.0243   3.2550   3.1283   C.ar      1 RES2   0.0000
     9 H16     -6.4707   3.9486   3.4676   H         1 RES2   0.0000
    10 C24     -9.4838   0.1812   1.6538   C.ar      1 RES2   0.0000
    11 H17    -10.2948   0.3660   1.1950   H         1 RES2   0.0000
    12 C25     -8.1901   3.5805   2.4137   C.ar      1 RES2   0.0000
    13 H18     -8.4105   4.4929   2.2660   H         1 RES2   0.0000
    14 C27     -8.6826   1.2465   2.1320   C.ar      1 RES2   0.0000
    15 C28     -9.0935  -1.1019   1.8505   C.ar      1 RES2   0.0000
    16 H21     -9.6163  -1.8233   1.5214   H         1 RES2   0.0000
@<TRIPOS>BOND
     1     1     2   ar
     2     2     5   ar
     3     3     1   ar
     4     4     3    1
     5     5     8   ar
     6     6     7    1
     7     8     9    1
     8    10    11    1
     9    12     6   ar
    10    13    12    1
    11    14     2   ar
    12    15     3   ar
    13    16    15    1
    14     6    14   ar
    15     8    12   ar
    16    10    14   ar
    17    10    15   ar
@<TRIPOS>SUBSTRUCTURE
     1 RES2        1 GROUP             0 ****  ****    0  
