@<TRIPOS>MOLECULE
01
    30    31     1     0     0
SMALL
NO_CHARGES
****
Generated from the CSD

@<TRIPOS>ATOM
     1 O1       4.2429   6.9337   6.6947   O.3       1 RES1   0.0000
     2 O2       3.4450   4.9944   6.0216   O.2       1 RES1   0.0000
     3 N5       6.1641  10.9287   8.3759   N.pl3     1 RES1   0.0000
     4 C3       3.2590   6.1941   6.0855   C.2       1 RES1   0.0000
     5 C4       3.0593  10.3913   6.4611   C.ar      1 RES1   0.0000
     6 H2       2.3455  10.9034   6.0997   H         1 RES1   0.0000
     7 C6       4.1585   8.3076   6.8171   C.ar      1 RES1   0.0000
     8 C8       4.0443  11.0254   7.1644   C.ar      1 RES1   0.0000
     9 H4       3.9911  11.9646   7.2970   H         1 RES1   0.0000
    10 C10      2.1176   6.8975   5.5481   C.2       1 RES1   0.0000
    11 C11      2.0586   8.2567   5.6178   C.2       1 RES1   0.0000
    12 H6       1.3215   8.7130   5.2294   H         1 RES1   0.0000
    13 C13      3.0761   8.9990   6.2583   C.ar      1 RES1   0.0000
    14 C14      5.1672   8.9103   7.5148   C.ar      1 RES1   0.0000
    15 H7       5.8779   8.3902   7.8711   H         1 RES1   0.0000
    16 C15      5.1488  10.3047   7.7028   C.ar      1 RES1   0.0000
    17 C17      6.1836  12.3646   8.6203   C.3       1 RES1   0.0000
    18 H9       5.6679  12.8167   7.9062   H         1 RES1   0.0000
    19 H10      7.1185  12.6851   8.5647   H         1 RES1   0.0000
    20 C26      7.2279  10.1518   9.0004   C.3       1 RES1   0.0000
    21 H19      7.9960  10.7507   9.1769   H         1 RES1   0.0000
    22 H20      7.5294   9.4574   8.3626   H         1 RES1   0.0000
    23 C29      5.6117  12.7626   9.9606   C.3       1 RES1   0.0000
    24 H22      4.6948  12.4246  10.0378   H         1 RES1   0.0000
    25 H23      5.6063  13.7401  10.0359   H         1 RES1   0.0000
    26 H24      6.1616  12.3828  10.6765   H         1 RES1   0.0000
    27 C30      6.8266   9.4769  10.3027   C.3       1 RES1   0.0000
    28 H25      6.0783   8.8660  10.1370   H         1 RES1   0.0000
    29 H26      6.5549  10.1573  10.9533   H         1 RES1   0.0000
    30 H27      7.5881   8.9717  10.6568   H         1 RES1   0.0000
@<TRIPOS>BOND
     1     1     4    1
     2     2     4    2
     3     3    16    1
     4     4    10    1
     5     5     6    1
     6     7     1    1
     7     8     5   ar
     8     9     8    1
     9    11    10    2
    10    12    11    1
    11    13     5   ar
    12    14     7   ar
    13    15    14    1
    14    16     8   ar
    15    17     3    1
    16    18    17    1
    17    19    17    1
    18    20     3    1
    19    21    20    1
    20    22    20    1
    21    23    17    1
    22    24    23    1
    23    25    23    1
    24    26    23    1
    25    27    20    1
    26    28    27    1
    27    29    27    1
    28    30    27    1
    29     7    13   ar
    30    11    13    1
    31    14    16   ar
@<TRIPOS>SUBSTRUCTURE
     1 RES1        1 GROUP             0 ****  ****    0  
