@<TRIPOS>MOLECULE
DUPBEY
    66    70     1     0     0
SMALL
NO_CHARGES
****
Generated from the CSD

@<TRIPOS>ATOM
     1 O1       4.2429   6.9337   6.6947   O.3       1 RES1   0.0000
     2 O2       3.4450   4.9944   6.0216   O.2       1 RES1   0.0000
     3 O3      -5.5716   1.5334   4.0287   O.3       1 RES1   0.0000
     4 O4      -1.2343   6.5785   1.8092   O.2       1 RES1   0.0000
     5 N1      -3.0298   4.0539   3.3801   N.ar      1 RES1   0.0000
     6 N2      -0.7346   5.5520   3.7807   N.am      1 RES1   0.0000
     7 H1      -0.9211   4.8852   4.3240   H         1 RES1   0.0000
     8 N3       0.2343   6.4841   4.1312   N.2       1 RES1   0.0000
     9 N4      -7.1179  -0.3974   3.0397   N.ar      1 RES1   0.0000
    10 N5       6.1641  10.9287   8.3759   N.pl3     1 RES1   0.0000
    11 C1      -3.8241   2.9975   3.1527   C.ar      1 RES1   0.0000
    12 C2      -2.3196   4.5146   2.3418   C.ar      1 RES1   0.0000
    13 C3       3.2590   6.1941   6.0855   C.2       1 RES1   0.0000
    14 C4       3.0593  10.3913   6.4611   C.ar      1 RES1   0.0000
    15 H2       2.3455  10.9034   6.0997   H         1 RES1   0.0000
    16 C5       1.0763   6.0442   4.9920   C.2       1 RES1   0.0000
    17 H3       1.0204   5.1387   5.2740   H         1 RES1   0.0000
    18 C6       4.1585   8.3076   6.8171   C.ar      1 RES1   0.0000
    19 C7      -1.3888   5.6696   2.6077   C.2       1 RES1   0.0000
    20 C8       4.0443  11.0254   7.1644   C.ar      1 RES1   0.0000
    21 H4       3.9911  11.9646   7.2970   H         1 RES1   0.0000
    22 C9      -3.9052   2.3721   1.9167   C.ar      1 RES1   0.0000
    23 H5      -4.4583   1.6086   1.7985   H         1 RES1   0.0000
    24 C10      2.1176   6.8975   5.5481   C.2       1 RES1   0.0000
    25 C11      2.0586   8.2567   5.6178   C.2       1 RES1   0.0000
    26 H6       1.3215   8.7130   5.2294   H         1 RES1   0.0000
    27 C12     -7.4984   0.8942   2.8306   C.ar      1 RES1   0.0000
    28 C13      3.0761   8.9990   6.2583   C.ar      1 RES1   0.0000
    29 C14      5.1672   8.9103   7.5148   C.ar      1 RES1   0.0000
    30 H7       5.8779   8.3902   7.8711   H         1 RES1   0.0000
    31 C15      5.1488  10.3047   7.7028   C.ar      1 RES1   0.0000
    32 C16     -2.3685   3.9763   1.0707   C.ar      1 RES1   0.0000
    33 H8      -1.8646   4.3536   0.3597   H         1 RES1   0.0000
    34 C17      6.1836  12.3646   8.6203   C.3       1 RES1   0.0000
    35 H9       5.6679  12.8167   7.9062   H         1 RES1   0.0000
    36 H10      7.1185  12.6851   8.5647   H         1 RES1   0.0000
    37 C18     -3.1724   2.8731   0.8638   C.ar      1 RES1   0.0000
    38 H11     -3.2192   2.4653   0.0071   H         1 RES1   0.0000
    39 C19     -7.8965  -1.3432   2.5528   C.ar      1 RES1   0.0000
    40 H12     -7.6336  -2.2465   2.6843   H         1 RES1   0.0000
    41 C20     -6.6797   1.9467   3.3399   C.ar      1 RES1   0.0000
    42 C21     -4.5867   2.5178   4.3605   C.3       1 RES1   0.0000
    43 H13     -3.9496   2.1314   5.0132   H         1 RES1   0.0000
    44 H14     -5.0314   3.2897   4.7911   H         1 RES1   0.0000
    45 C22     -9.0063   2.6064   1.9306   C.ar      1 RES1   0.0000
    46 H15     -9.7961   2.8410   1.4571   H         1 RES1   0.0000
    47 C23     -7.0243   3.2550   3.1283   C.ar      1 RES1   0.0000
    48 H16     -6.4707   3.9486   3.4676   H         1 RES1   0.0000
    49 C24     -9.4838   0.1812   1.6538   C.ar      1 RES1   0.0000
    50 H17    -10.2948   0.3660   1.1950   H         1 RES1   0.0000
    51 C25     -8.1901   3.5805   2.4137   C.ar      1 RES1   0.0000
    52 H18     -8.4105   4.4929   2.2660   H         1 RES1   0.0000
    53 C26      7.2279  10.1518   9.0004   C.3       1 RES1   0.0000
    54 H19      7.9960  10.7507   9.1769   H         1 RES1   0.0000
    55 H20      7.5294   9.4574   8.3626   H         1 RES1   0.0000
    56 C27     -8.6826   1.2465   2.1320   C.ar      1 RES1   0.0000
    57 C28     -9.0935  -1.1019   1.8505   C.ar      1 RES1   0.0000
    58 H21     -9.6163  -1.8233   1.5214   H         1 RES1   0.0000
    59 C29      5.6117  12.7626   9.9606   C.3       1 RES1   0.0000
    60 H22      4.6948  12.4246  10.0378   H         1 RES1   0.0000
    61 H23      5.6063  13.7401  10.0359   H         1 RES1   0.0000
    62 H24      6.1616  12.3828  10.6765   H         1 RES1   0.0000
    63 C30      6.8266   9.4769  10.3027   C.3       1 RES1   0.0000
    64 H25      6.0783   8.8660  10.1370   H         1 RES1   0.0000
    65 H26      6.5549  10.1573  10.9533   H         1 RES1   0.0000
    66 H27      7.5881   8.9717  10.6568   H         1 RES1   0.0000
@<TRIPOS>BOND
     1     1    13    1
     2     2    13    2
     3     3    41    1
     4     4    19    2
     5     5    11   ar
     6     6     7    1
     7     8     6    1
     8     9    27   ar
     9    10    31    1
    10    11    22   ar
    11    12     5   ar
    12    13    24    1
    13    14    15    1
    14    16     8    2
    15    17    16    1
    16    18     1    1
    17    19     6   am
    18    20    14   ar
    19    21    20    1
    20    22    23    1
    21    24    16    1
    22    25    24    2
    23    26    25    1
    24    27    41   ar
    25    28    14   ar
    26    29    18   ar
    27    30    29    1
    28    31    20   ar
    29    32    12   ar
    30    33    32    1
    31    34    10    1
    32    35    34    1
    33    36    34    1
    34    37    22   ar
    35    38    37    1
    36    39     9   ar
    37    40    39    1
    38    41    47   ar
    39    42     3    1
    40    43    42    1
    41    44    42    1
    42    45    46    1
    43    47    48    1
    44    49    50    1
    45    51    45   ar
    46    52    51    1
    47    53    10    1
    48    54    53    1
    49    55    53    1
    50    56    27   ar
    51    57    39   ar
    52    58    57    1
    53    59    34    1
    54    60    59    1
    55    61    59    1
    56    62    59    1
    57    63    53    1
    58    64    63    1
    59    65    63    1
    60    66    63    1
    61    11    42    1
    62    12    19    1
    63    18    28   ar
    64    25    28    1
    65    29    31   ar
    66    32    37   ar
    67    45    56   ar
    68    47    51   ar
    69    49    56   ar
    70    49    57   ar
@<TRIPOS>SUBSTRUCTURE
     1 RES1        1 GROUP             0 ****  ****    0  
@<TRIPOS>CRYSIN
   10.0589   11.2307   12.6188   98.1730  111.7280  102.5260     2     1
