@<TRIPOS>MOLECULE
01
    35    35     1     0     0
SMALL
NO_CHARGES
****
Generated from the CSD

@<TRIPOS>ATOM
     1 O1       3.0064   9.7744   7.5780   O.2       1 RES1   0.0000
     2 O2       0.6880   8.9886   6.5748   O.2       1 RES1   0.0000
     3 C1       2.9822   8.7242   6.9776   C.2       1 RES1   0.0000
     4 C2       1.6213   8.2285   6.5268   C.2       1 RES1   0.0000
     5 C3       1.5276   6.8520   6.0449   C.2       1 RES1   0.0000
     6 C4       2.6920   6.2094   5.9082   C.2       1 RES1   0.0000
     7 H1       2.6405   5.3104   5.6049   H         1 RES1   0.0000
     8 C5       4.0427   6.7269   6.1699   C.2       1 RES1   0.0000
     9 C6       4.1869   7.9527   6.6966   C.2       1 RES1   0.0000
    10 C7       0.1862   6.2373   5.7618   C.3       1 RES1   0.0000
    11 C8      -0.6791   6.3272   7.0086   C.3       1 RES1   0.0000
    12 H2      -0.2434   5.8471   7.7439   H         1 RES1   0.0000
    13 H3      -1.5540   5.9238   6.8289   H         1 RES1   0.0000
    14 H4      -0.7973   7.2673   7.2570   H         1 RES1   0.0000
    15 C9      -0.4874   6.9735   4.6079   C.3       1 RES1   0.0000
    16 H5      -0.5750   7.9229   4.8334   H         1 RES1   0.0000
    17 H6      -1.3763   6.5914   4.4513   H         1 RES1   0.0000
    18 H7       0.0562   6.8784   3.7982   H         1 RES1   0.0000
    19 C10      0.3053   4.7806   5.3569   C.3       1 RES1   0.0000
    20 H8       0.7352   4.2758   6.0783   H         1 RES1   0.0000
    21 H9       0.8452   4.7117   4.5425   H         1 RES1   0.0000
    22 H10     -0.5882   4.4148   5.1893   H         1 RES1   0.0000
    23 C11      5.1132   5.6955   5.8366   C.3       1 RES1   0.0000
    24 C12      4.9528   4.5413   6.8088   C.3       1 RES1   0.0000
    25 H11      4.0455   4.1782   6.7372   H         1 RES1   0.0000
    26 H12      5.1058   4.8611   7.7223   H         1 RES1   0.0000
    27 H13      5.6033   3.8408   6.5942   H         1 RES1   0.0000
    28 C13      4.9216   5.2180   4.3932   C.3       1 RES1   0.0000
    29 H14      4.0645   4.7494   4.3150   H         1 RES1   0.0000
    30 H15      5.6501   4.6079   4.1513   H         1 RES1   0.0000
    31 H16      4.9285   5.9897   3.7897   H         1 RES1   0.0000
    32 C14      6.5469   6.1753   5.9274   C.3       1 RES1   0.0000
    33 H17      7.1539   5.4314   5.7325   H         1 RES1   0.0000
    34 H18      6.7219   6.5123   6.8307   H         1 RES1   0.0000
    35 H19      6.6925   6.8945   5.2770   H         1 RES1   0.0000
@<TRIPOS>BOND
     1     1     3    2
     2     2     4    2
     3     3     4    1
     4     4     5    1
     5     5     6    2
     6     6     7    1
     7     8     6    1
     8     9     3    1
     9    10     5    1
    10    11    10    1
    11    12    11    1
    12    13    11    1
    13    14    11    1
    14    15    10    1
    15    16    15    1
    16    17    15    1
    17    18    15    1
    18    19    10    1
    19    20    19    1
    20    21    19    1
    21    22    19    1
    22    23     8    1
    23    24    23    1
    24    25    24    1
    25    26    24    1
    26    27    24    1
    27    28    23    1
    28    29    28    1
    29    30    28    1
    30    31    28    1
    31    32    23    1
    32    33    32    1
    33    34    32    1
    34    35    32    1
    35     8     9    2
@<TRIPOS>SUBSTRUCTURE
     1 RES1        1 GROUP             0 ****  ****    0  
