@<TRIPOS>MOLECULE
EHIZON
    96    97     1     0     0
SMALL
NO_CHARGES
****
Generated from the CSD

@<TRIPOS>ATOM
     1 O1       3.0064   9.7744   7.5780   O.2       1 RES1   0.0000
     2 O2       0.6880   8.9886   6.5748   O.2       1 RES1   0.0000
     3 O3       5.7665   8.0932   8.4071   O.3       1 RES1   0.0000
     4 C1       2.9822   8.7242   6.9776   C.2       1 RES1   0.0000
     5 C2       1.6213   8.2285   6.5268   C.2       1 RES1   0.0000
     6 C3       1.5276   6.8520   6.0449   C.2       1 RES1   0.0000
     7 C4       2.6920   6.2094   5.9082   C.2       1 RES1   0.0000
     8 H1       2.6405   5.3104   5.6049   H         1 RES1   0.0000
     9 C5       4.0427   6.7269   6.1699   C.2       1 RES1   0.0000
    10 C6       4.1869   7.9527   6.6966   C.2       1 RES1   0.0000
    11 C7       0.1862   6.2373   5.7618   C.3       1 RES1   0.0000
    12 C8      -0.6791   6.3272   7.0086   C.3       1 RES1   0.0000
    13 H2      -0.2434   5.8471   7.7439   H         1 RES1   0.0000
    14 H3      -1.5540   5.9238   6.8289   H         1 RES1   0.0000
    15 H4      -0.7973   7.2673   7.2570   H         1 RES1   0.0000
    16 C9      -0.4874   6.9735   4.6079   C.3       1 RES1   0.0000
    17 H5      -0.5750   7.9229   4.8334   H         1 RES1   0.0000
    18 H6      -1.3763   6.5914   4.4513   H         1 RES1   0.0000
    19 H7       0.0562   6.8784   3.7982   H         1 RES1   0.0000
    20 C10      0.3053   4.7806   5.3569   C.3       1 RES1   0.0000
    21 H8       0.7352   4.2758   6.0783   H         1 RES1   0.0000
    22 H9       0.8452   4.7117   4.5425   H         1 RES1   0.0000
    23 H10     -0.5882   4.4148   5.1893   H         1 RES1   0.0000
    24 C11      5.1132   5.6955   5.8366   C.3       1 RES1   0.0000
    25 C12      4.9528   4.5413   6.8088   C.3       1 RES1   0.0000
    26 H11      4.0455   4.1782   6.7372   H         1 RES1   0.0000
    27 H12      5.1058   4.8611   7.7223   H         1 RES1   0.0000
    28 H13      5.6033   3.8408   6.5942   H         1 RES1   0.0000
    29 C13      4.9216   5.2180   4.3932   C.3       1 RES1   0.0000
    30 H14      4.0645   4.7494   4.3150   H         1 RES1   0.0000
    31 H15      5.6501   4.6079   4.1513   H         1 RES1   0.0000
    32 H16      4.9285   5.9897   3.7897   H         1 RES1   0.0000
    33 C14      6.5469   6.1753   5.9274   C.3       1 RES1   0.0000
    34 H17      7.1539   5.4314   5.7325   H         1 RES1   0.0000
    35 H18      6.7219   6.5123   6.8307   H         1 RES1   0.0000
    36 H19      6.6925   6.8945   5.2770   H         1 RES1   0.0000
    37 C15      5.4294   8.6136   7.1411   C.3       1 RES1   0.0000
    38 H20      6.1588   8.4385   6.4953   H         1 RES1   0.0000
    39 H21      5.2923   9.5925   7.2010   H         1 RES1   0.0000
    40 C16      7.0268   8.5760   8.8526   C.3       1 RES1   0.0000
    41 H22      6.9944   9.5584   8.9691   H         1 RES1   0.0000
    42 H23      7.7289   8.3616   8.1884   H         1 RES1   0.0000
    43 C17      7.3300   7.9151  10.1518   C.3       1 RES1   0.0000
    44 H24      6.6180   8.1381  10.8023   H         1 RES1   0.0000
    45 H25      8.1845   8.2695  10.5037   H         1 RES1   0.0000
    46 C18      7.4329   6.4098  10.0289   C.3       1 RES1   0.0000
    47 H26      6.5896   6.0583   9.6477   H         1 RES1   0.0000
    48 H27      8.1653   6.1860   9.4018   H         1 RES1   0.0000
    49 O1D     12.1181   2.3746  13.7896   O.2       1 RES1   0.0000
    50 O2D     14.4365   3.1604  14.7928   O.2       1 RES1   0.0000
    51 O3D      9.3580   4.0558  12.9606   O.3       1 RES1   0.0000
    52 C1D     12.1423   3.4248  14.3901   C.2       1 RES1   0.0000
    53 C2D     13.5032   3.9205  14.8409   C.2       1 RES1   0.0000
    54 C3D     13.5969   5.2970  15.3228   C.2       1 RES1   0.0000
    55 C4D     12.4324   5.9396  15.4595   C.2       1 RES1   0.0000
    56 H1D     12.4840   6.8386  15.7628   H         1 RES1   0.0000
    57 C5D     11.0818   5.4221  15.1978   C.2       1 RES1   0.0000
    58 C6D     10.9376   4.1963  14.6710   C.2       1 RES1   0.0000
    59 C7D     14.9382   5.9117  15.6059   C.3       1 RES1   0.0000
    60 C8D     15.8036   5.8218  14.3591   C.3       1 RES1   0.0000
    61 H2D     15.3678   6.3019  13.6238   H         1 RES1   0.0000
    62 H3D     16.6785   6.2252  14.5387   H         1 RES1   0.0000
    63 H4D     15.9218   4.8817  14.1106   H         1 RES1   0.0000
    64 C9D     15.6119   5.1755  16.7597   C.3       1 RES1   0.0000
    65 H5D     15.6995   4.2261  16.5343   H         1 RES1   0.0000
    66 H6D     16.5008   5.5576  16.9164   H         1 RES1   0.0000
    67 H7D     15.0683   5.2706  17.5695   H         1 RES1   0.0000
    68 C10D    14.8192   7.3684  16.0108   C.3       1 RES1   0.0000
    69 H8D     14.3893   7.8732  15.2894   H         1 RES1   0.0000
    70 H9D     14.2793   7.4373  16.8252   H         1 RES1   0.0000
    71 H10D    15.7126   7.7342  16.1784   H         1 RES1   0.0000
    72 C11D    10.0113   6.4535  15.5311   C.3       1 RES1   0.0000
    73 C12D    10.1717   7.6077  14.5589   C.3       1 RES1   0.0000
    74 H11D    11.0790   7.9708  14.6305   H         1 RES1   0.0000
    75 H12D    10.0187   7.2879  13.6454   H         1 RES1   0.0000
    76 H13D     9.5212   8.3082  14.7734   H         1 RES1   0.0000
    77 C13D    10.2028   6.9310  16.9745   C.3       1 RES1   0.0000
    78 H14D    11.0600   7.3996  17.0527   H         1 RES1   0.0000
    79 H15D     9.4744   7.5411  17.2163   H         1 RES1   0.0000
    80 H16D    10.1960   6.1593  17.5780   H         1 RES1   0.0000
    81 C14D     8.5776   5.9737  15.4403   C.3       1 RES1   0.0000
    82 H17D     7.9705   6.7176  15.6352   H         1 RES1   0.0000
    83 H18D     8.4025   5.6367  14.5369   H         1 RES1   0.0000
    84 H19D     8.4320   5.2545  16.0906   H         1 RES1   0.0000
    85 C15D     9.6950   3.5354  14.2266   C.3       1 RES1   0.0000
    86 H20D     8.9657   3.7105  14.8723   H         1 RES1   0.0000
    87 H21D     9.8322   2.5565  14.1667   H         1 RES1   0.0000
    88 C16D     8.0977   3.5730  12.5150   C.3       1 RES1   0.0000
    89 H22D     8.1300   2.5906  12.3986   H         1 RES1   0.0000
    90 H23D     7.3956   3.7874  13.1793   H         1 RES1   0.0000
    91 C17D     7.7944   4.2339  11.2159   C.3       1 RES1   0.0000
    92 H24D     8.5064   4.0109  10.5654   H         1 RES1   0.0000
    93 H25D     6.9400   3.8795  10.8640   H         1 RES1   0.0000
    94 C18D     7.6915   5.7392  11.3388   C.3       1 RES1   0.0000
    95 H26D     8.5349   6.0907  11.7199   H         1 RES1   0.0000
    96 H27D     6.9592   5.9630  11.9659   H         1 RES1   0.0000
@<TRIPOS>BOND
     1     1     4    2
     2     2     5    2
     3     3    37    1
     4     4     5    1
     5     5     6    1
     6     6     7    2
     7     7     8    1
     8     9     7    1
     9    10     4    1
    10    11     6    1
    11    12    11    1
    12    13    12    1
    13    14    12    1
    14    15    12    1
    15    16    11    1
    16    17    16    1
    17    18    16    1
    18    19    16    1
    19    20    11    1
    20    21    20    1
    21    22    20    1
    22    23    20    1
    23    24     9    1
    24    25    24    1
    25    26    25    1
    26    27    25    1
    27    28    25    1
    28    29    24    1
    29    30    29    1
    30    31    29    1
    31    32    29    1
    32    33    24    1
    33    34    33    1
    34    35    33    1
    35    36    33    1
    36    37    10    1
    37    38    37    1
    38    39    37    1
    39    40     3    1
    40    41    40    1
    41    42    40    1
    42    43    40    1
    43    44    43    1
    44    45    43    1
    45    46    43    1
    46    47    46    1
    47    48    46    1
    48    49    52    2
    49    50    53    2
    50    51    85    1
    51    52    53    1
    52    53    54    1
    53    54    55    2
    54    55    56    1
    55    57    55    1
    56    58    52    1
    57    59    54    1
    58    60    59    1
    59    61    60    1
    60    62    60    1
    61    63    60    1
    62    64    59    1
    63    65    64    1
    64    66    64    1
    65    67    64    1
    66    68    59    1
    67    69    68    1
    68    70    68    1
    69    71    68    1
    70    72    57    1
    71    73    72    1
    72    74    73    1
    73    75    73    1
    74    76    73    1
    75    77    72    1
    76    78    77    1
    77    79    77    1
    78    80    77    1
    79    81    72    1
    80    82    81    1
    81    83    81    1
    82    84    81    1
    83    85    58    1
    84    86    85    1
    85    87    85    1
    86    88    51    1
    87    89    88    1
    88    90    88    1
    89    91    88    1
    90    92    91    1
    91    93    91    1
    92    94    46    1
    93    95    94    1
    94    96    94    1
    95     9    10    2
    96    57    58    2
    97    91    94    1
@<TRIPOS>SUBSTRUCTURE
     1 RES1        1 GROUP             0 ****  ****    0  
@<TRIPOS>CRYSIN
   25.6920   12.1490   11.9190   90.0000  116.3150   90.0000    15     1
