@<TRIPOS>MOLECULE
02
    35    35     1     0     0
SMALL
NO_CHARGES
****
Generated from the CSD

@<TRIPOS>ATOM
     1 O1D     12.1181   2.3746  13.7896   O.2       1 RES2   0.0000
     2 O2D     14.4365   3.1604  14.7928   O.2       1 RES2   0.0000
     3 C1D     12.1423   3.4248  14.3901   C.2       1 RES2   0.0000
     4 C2D     13.5032   3.9205  14.8409   C.2       1 RES2   0.0000
     5 C3D     13.5969   5.2970  15.3228   C.2       1 RES2   0.0000
     6 C4D     12.4324   5.9396  15.4595   C.2       1 RES2   0.0000
     7 H1D     12.4840   6.8386  15.7628   H         1 RES2   0.0000
     8 C5D     11.0818   5.4221  15.1978   C.2       1 RES2   0.0000
     9 C6D     10.9376   4.1963  14.6710   C.2       1 RES2   0.0000
    10 C7D     14.9382   5.9117  15.6059   C.3       1 RES2   0.0000
    11 C8D     15.8036   5.8218  14.3591   C.3       1 RES2   0.0000
    12 H2D     15.3678   6.3019  13.6238   H         1 RES2   0.0000
    13 H3D     16.6785   6.2252  14.5387   H         1 RES2   0.0000
    14 H4D     15.9218   4.8817  14.1106   H         1 RES2   0.0000
    15 C9D     15.6119   5.1755  16.7597   C.3       1 RES2   0.0000
    16 H5D     15.6995   4.2261  16.5343   H         1 RES2   0.0000
    17 H6D     16.5008   5.5576  16.9164   H         1 RES2   0.0000
    18 H7D     15.0683   5.2706  17.5695   H         1 RES2   0.0000
    19 C10D    14.8192   7.3684  16.0108   C.3       1 RES2   0.0000
    20 H8D     14.3893   7.8732  15.2894   H         1 RES2   0.0000
    21 H9D     14.2793   7.4373  16.8252   H         1 RES2   0.0000
    22 H10D    15.7126   7.7342  16.1784   H         1 RES2   0.0000
    23 C11D    10.0113   6.4535  15.5311   C.3       1 RES2   0.0000
    24 C12D    10.1717   7.6077  14.5589   C.3       1 RES2   0.0000
    25 H11D    11.0790   7.9708  14.6305   H         1 RES2   0.0000
    26 H12D    10.0187   7.2879  13.6454   H         1 RES2   0.0000
    27 H13D     9.5212   8.3082  14.7734   H         1 RES2   0.0000
    28 C13D    10.2028   6.9310  16.9745   C.3       1 RES2   0.0000
    29 H14D    11.0600   7.3996  17.0527   H         1 RES2   0.0000
    30 H15D     9.4744   7.5411  17.2163   H         1 RES2   0.0000
    31 H16D    10.1960   6.1593  17.5780   H         1 RES2   0.0000
    32 C14D     8.5776   5.9737  15.4403   C.3       1 RES2   0.0000
    33 H17D     7.9705   6.7176  15.6352   H         1 RES2   0.0000
    34 H18D     8.4025   5.6367  14.5369   H         1 RES2   0.0000
    35 H19D     8.4320   5.2545  16.0906   H         1 RES2   0.0000
@<TRIPOS>BOND
     1     1     3    2
     2     2     4    2
     3     3     4    1
     4     4     5    1
     5     5     6    2
     6     6     7    1
     7     8     6    1
     8     9     3    1
     9    10     5    1
    10    11    10    1
    11    12    11    1
    12    13    11    1
    13    14    11    1
    14    15    10    1
    15    16    15    1
    16    17    15    1
    17    18    15    1
    18    19    10    1
    19    20    19    1
    20    21    19    1
    21    22    19    1
    22    23     8    1
    23    24    23    1
    24    25    24    1
    25    26    24    1
    26    27    24    1
    27    28    23    1
    28    29    28    1
    29    30    28    1
    30    31    28    1
    31    32    23    1
    32    33    32    1
    33    34    32    1
    34    35    32    1
    35     8     9    2
@<TRIPOS>SUBSTRUCTURE
     1 RES2        1 GROUP             0 ****  ****    0  
