@<TRIPOS>MOLECULE
02
    57    61     1     0     0
SMALL
NO_CHARGES
****
Generated from the CSD

@<TRIPOS>ATOM
     1 O1       8.9391   9.3273   2.7911   O.3       1 RES2   0.0000
     2 O2       2.6826   8.8859   4.0137   O.2       1 RES2   0.0000
     3 N1       4.9550   8.8406   3.7325   N.am      1 RES2   0.0000
     4 N5       9.1098  13.7443   4.4338   N.pl3     1 RES2   0.0000
     5 N6       9.3340   4.7989   1.4586   N.pl3     1 RES2   0.0000
     6 C1       6.8238  10.4090   3.2872   C.ar      1 RES2   0.0000
     7 C2       6.2295  11.5730   3.7922   C.ar      1 RES2   0.0000
     8 H1       5.2821  11.6028   3.8524   H         1 RES2   0.0000
     9 C3       6.9409  12.6790   4.2082   C.ar      1 RES2   0.0000
    10 C4       8.3632  12.6442   4.1040   C.ar      1 RES2   0.0000
    11 C5       8.9717  11.4855   3.6401   C.ar      1 RES2   0.0000
    12 H2       9.9190  11.4355   3.5978   H         1 RES2   0.0000
    13 C6       8.2059  10.4001   3.2382   C.ar      1 RES2   0.0000
    14 C7       8.2693   8.1761   2.4514   C.ar      1 RES2   0.0000
    15 C8       9.0940   7.0941   2.1609   C.ar      1 RES2   0.0000
    16 H3      10.0370   7.1812   2.2430   H         1 RES2   0.0000
    17 C9       8.5437   5.8908   1.7532   C.ar      1 RES2   0.0000
    18 C10      7.1321   5.7822   1.6320   C.ar      1 RES2   0.0000
    19 C11      6.3591   6.8808   1.9344   C.ar      1 RES2   0.0000
    20 H4       5.4169   6.8078   1.8416   H         1 RES2   0.0000
    21 C12      6.8920   8.0999   2.3713   C.ar      1 RES2   0.0000
    22 C13      5.9953   9.2587   2.7507   C.3       1 RES2   0.0000
    23 C14      5.0998   9.7237   1.6097   C.ar      1 RES2   0.0000
    24 C15      5.4712  10.2092   0.3726   C.ar      1 RES2   0.0000
    25 H5       6.3870  10.2585   0.1245   H         1 RES2   0.0000
    26 C16      4.4747  10.6228  -0.5001   C.ar      1 RES2   0.0000
    27 H6       4.7105  10.9621  -1.3547   H         1 RES2   0.0000
    28 C17      3.1278  10.5446  -0.1340   C.ar      1 RES2   0.0000
    29 H7       2.4579  10.8365  -0.7415   H         1 RES2   0.0000
    30 C18      2.7593  10.0474   1.1037   C.ar      1 RES2   0.0000
    31 H8       1.8456   9.9851   1.3547   H         1 RES2   0.0000
    32 C19      3.7661   9.6427   1.9674   C.ar      1 RES2   0.0000
    33 C20      3.6778   9.0890   3.3411   C.2       1 RES2   0.0000
    34 C41      6.2438  13.9049   4.7288   C.3       1 RES2   0.0000
    35 H24      5.2751  13.7535   4.7295   H         1 RES2   0.0000
    36 H25      6.4540  14.6697   4.1534   H         1 RES2   0.0000
    37 H26      6.5466  14.0897   5.6420   H         1 RES2   0.0000
    38 C42     10.5460  13.7749   4.2536   C.3       1 RES2   0.0000
    39 H27     10.7596  13.6336   3.2967   H         1 RES2   0.0000
    40 H28     10.9572  13.0377   4.7723   H         1 RES2   0.0000
    41 C43     11.1287  15.0899   4.7063   C.3       1 RES2   0.0000
    42 H29     12.0963  15.0898   4.5493   H         1 RES2   0.0000
    43 H30     10.9532  15.2126   5.6624   H         1 RES2   0.0000
    44 H31     10.7154  15.8210   4.2017   H         1 RES2   0.0000
    45 C44     10.7740   4.8047   1.6426   C.3       1 RES2   0.0000
    46 H32     10.9884   5.0448   2.5794   H         1 RES2   0.0000
    47 H33     11.1821   5.4840   1.0481   H         1 RES2   0.0000
    48 C45     11.3493   3.4324   1.3222   C.3       1 RES2   0.0000
    49 H34     12.3213   3.4484   1.4477   H         1 RES2   0.0000
    50 H35     11.1432   3.2008   0.3921   H         1 RES2   0.0000
    51 H36     10.9539   2.7638   1.9197   H         1 RES2   0.0000
    52 C46      6.5049   4.4869   1.2124   C.3       1 RES2   0.0000
    53 H37      5.5345   4.6018   1.1392   H         1 RES2   0.0000
    54 H38      6.7023   3.7966   1.8807   H         1 RES2   0.0000
    55 H39      6.8679   4.2144   0.3438   H         1 RES2   0.0000
    56 H40      8.9141   4.0672   1.2358   H         1 RES2   0.0000
    57 H42      8.7185  14.4402   4.7555   H         1 RES2   0.0000
@<TRIPOS>BOND
     1     1    13    1
     2     2    33    2
     3     3    22    1
     4     4    10    1
     5     5    17    1
     6     6     7   ar
     7     7     8    1
     8     9     7   ar
     9    10     9   ar
    10    11    10   ar
    11    12    11    1
    12    13     6   ar
    13    14     1    1
    14    15    14   ar
    15    16    15    1
    16    17    15   ar
    17    18    17   ar
    18    19    18   ar
    19    20    19    1
    20    21    14   ar
    21    22     6    1
    22    23    22    1
    23    24    23   ar
    24    25    24    1
    25    26    24   ar
    26    27    26    1
    27    28    26   ar
    28    29    28    1
    29    30    28   ar
    30    31    30    1
    31    32    23   ar
    32    33     3   am
    33    34     9    1
    34    35    34    1
    35    36    34    1
    36    37    34    1
    37    38     4    1
    38    39    38    1
    39    40    38    1
    40    41    38    1
    41    42    41    1
    42    43    41    1
    43    44    41    1
    44    45     5    1
    45    46    45    1
    46    47    45    1
    47    48    45    1
    48    49    48    1
    49    50    48    1
    50    51    48    1
    51    52    18    1
    52    53    52    1
    53    54    52    1
    54    55    52    1
    55    56     5    1
    56    57     4    1
    57    11    13   ar
    58    19    21   ar
    59    21    22    1
    60    30    32   ar
    61    32    33    1
@<TRIPOS>SUBSTRUCTURE
     1 RES2        1 GROUP             0 ****  ****    0  
