@<TRIPOS>MOLECULE
01
    28    31     1     0     0
SMALL
NO_CHARGES
****
Generated from the CSD

@<TRIPOS>ATOM
     1 S1       2.9475   9.2606   8.6129   S.3       1 RES1   0.0000
     2 N3       3.4477   6.8697  10.1373   N.ar      1 RES1   0.0000
     3 N4       1.1762   9.6053  10.4954   N.2       1 RES1   0.0000
     4 C25      4.8357   4.9281  10.0628   C.ar      1 RES1   0.0000
     5 C26      5.2732   3.7587  10.6225   C.ar      1 RES1   0.0000
     6 H15      5.9639   3.2612  10.2005   H         1 RES1   0.0000
     7 C27      4.6996   3.2894  11.8292   C.ar      1 RES1   0.0000
     8 H16      4.9954   2.4656  12.1982   H         1 RES1   0.0000
     9 C28      3.7347   3.9967  12.4675   C.ar      1 RES1   0.0000
    10 H17      3.3589   3.6647  13.2742   H         1 RES1   0.0000
    11 C29      3.2887   5.2272  11.9336   C.ar      1 RES1   0.0000
    12 C30      2.2768   6.0011  12.5275   C.ar      1 RES1   0.0000
    13 H18      1.8821   5.7196  13.3448   H         1 RES1   0.0000
    14 C31      1.8603   7.1514  11.9358   C.ar      1 RES1   0.0000
    15 H19      1.1621   7.6701  12.3190   H         1 RES1   0.0000
    16 C32      2.4910   7.5565  10.7378   C.ar      1 RES1   0.0000
    17 C33      3.8414   5.7103  10.7164   C.ar      1 RES1   0.0000
    18 C34      2.1101   8.8058  10.0758   C.2       1 RES1   0.0000
    19 C35      1.0554  10.6777   9.6172   C.ar      1 RES1   0.0000
    20 C36      0.1168  11.7107   9.7389   C.ar      1 RES1   0.0000
    21 H20     -0.4801  11.7431  10.4774   H         1 RES1   0.0000
    22 C37      0.0844  12.6782   8.7620   C.ar      1 RES1   0.0000
    23 H21     -0.5581  13.3747   8.8197   H         1 RES1   0.0000
    24 C38      0.9709  12.6585   7.6895   C.ar      1 RES1   0.0000
    25 H22      0.9292  13.3476   7.0376   H         1 RES1   0.0000
    26 C39      1.9066  11.6575   7.5572   C.ar      1 RES1   0.0000
    27 H23      2.5116  11.6465   6.8239   H         1 RES1   0.0000
    28 C40      1.9414  10.6590   8.5302   C.ar      1 RES1   0.0000
@<TRIPOS>BOND
     1     1    18    1
     2     2    16   ar
     3     3    18    2
     4     5     4   ar
     5     6     5    1
     6     7     5   ar
     7     8     7    1
     8     9     7   ar
     9    10     9    1
    10    11     9   ar
    11    12    11   ar
    12    13    12    1
    13    14    12   ar
    14    15    14    1
    15    16    14   ar
    16    17     2   ar
    17    18    16    1
    18    19     3    1
    19    20    19   ar
    20    21    20    1
    21    22    20   ar
    22    23    22    1
    23    24    22   ar
    24    25    24    1
    25    26    24   ar
    26    27    26    1
    27    28     1    1
    28     4    17   ar
    29    11    17   ar
    30    19    28   ar
    31    26    28   ar
@<TRIPOS>SUBSTRUCTURE
     1 RES1        1 GROUP             0 ****  ****    0  
