@<TRIPOS>MOLECULE
EMIPEX
    99   107     1     0     0
SMALL
NO_CHARGES
****
Generated from the CSD

@<TRIPOS>ATOM
     1 S1       2.9475   9.2606   8.6129   S.3       1 RES1   0.0000
     2 O1       8.9391   9.3273   2.7911   O.3       1 RES1   0.0000
     3 O2       2.6826   8.8859   4.0137   O.2       1 RES1   0.0000
     4 O3       6.7413   4.5781   5.7932   O.2       1 RES1   0.0000
     5 O4       5.2653   5.4480   8.8731   O.3       1 RES1   0.0000
     6 N1       4.9550   8.8406   3.7325   N.am      1 RES1   0.0000
     7 N2       5.3502   6.2546   6.4080   N.am      1 RES1   0.0000
     8 N3       3.4477   6.8697  10.1373   N.ar      1 RES1   0.0000
     9 N4       1.1762   9.6053  10.4954   N.2       1 RES1   0.0000
    10 N5       9.1098  13.7443   4.4338   N.pl3     1 RES1   0.0000
    11 N6       9.3340   4.7989   1.4586   N.pl3     1 RES1   0.0000
    12 C1       6.8238  10.4090   3.2872   C.ar      1 RES1   0.0000
    13 C2       6.2295  11.5730   3.7922   C.ar      1 RES1   0.0000
    14 H1       5.2821  11.6028   3.8524   H         1 RES1   0.0000
    15 C3       6.9409  12.6790   4.2082   C.ar      1 RES1   0.0000
    16 C4       8.3632  12.6442   4.1040   C.ar      1 RES1   0.0000
    17 C5       8.9717  11.4855   3.6401   C.ar      1 RES1   0.0000
    18 H2       9.9190  11.4355   3.5978   H         1 RES1   0.0000
    19 C6       8.2059  10.4001   3.2382   C.ar      1 RES1   0.0000
    20 C7       8.2693   8.1761   2.4514   C.ar      1 RES1   0.0000
    21 C8       9.0940   7.0941   2.1609   C.ar      1 RES1   0.0000
    22 H3      10.0370   7.1812   2.2430   H         1 RES1   0.0000
    23 C9       8.5437   5.8908   1.7532   C.ar      1 RES1   0.0000
    24 C10      7.1321   5.7822   1.6320   C.ar      1 RES1   0.0000
    25 C11      6.3591   6.8808   1.9344   C.ar      1 RES1   0.0000
    26 H4       5.4169   6.8078   1.8416   H         1 RES1   0.0000
    27 C12      6.8920   8.0999   2.3713   C.ar      1 RES1   0.0000
    28 C13      5.9953   9.2587   2.7507   C.3       1 RES1   0.0000
    29 C14      5.0998   9.7237   1.6097   C.ar      1 RES1   0.0000
    30 C15      5.4712  10.2092   0.3726   C.ar      1 RES1   0.0000
    31 H5       6.3870  10.2585   0.1245   H         1 RES1   0.0000
    32 C16      4.4747  10.6228  -0.5001   C.ar      1 RES1   0.0000
    33 H6       4.7105  10.9621  -1.3547   H         1 RES1   0.0000
    34 C17      3.1278  10.5446  -0.1340   C.ar      1 RES1   0.0000
    35 H7       2.4579  10.8365  -0.7415   H         1 RES1   0.0000
    36 C18      2.7593  10.0474   1.1037   C.ar      1 RES1   0.0000
    37 H8       1.8456   9.9851   1.3547   H         1 RES1   0.0000
    38 C19      3.7661   9.6427   1.9674   C.ar      1 RES1   0.0000
    39 C20      3.6778   9.0890   3.3411   C.2       1 RES1   0.0000
    40 C21      5.2712   8.3007   5.0451   C.3       1 RES1   0.0000
    41 H9       4.6428   8.6748   5.7126   H         1 RES1   0.0000
    42 H10      6.1871   8.5765   5.3000   H         1 RES1   0.0000
    43 C22      5.1803   6.7858   5.0649   C.3       1 RES1   0.0000
    44 H11      4.2988   6.5070   4.7128   H         1 RES1   0.0000
    45 H12      5.8789   6.4085   4.4731   H         1 RES1   0.0000
    46 C23      6.0880   5.1630   6.6460   C.2       1 RES1   0.0000
    47 C24      6.0728   4.6237   8.0478   C.3       1 RES1   0.0000
    48 H13      5.7148   3.7012   8.0467   H         1 RES1   0.0000
    49 H14      6.9956   4.5968   8.4053   H         1 RES1   0.0000
    50 C25      4.8357   4.9281  10.0628   C.ar      1 RES1   0.0000
    51 C26      5.2732   3.7587  10.6225   C.ar      1 RES1   0.0000
    52 H15      5.9639   3.2612  10.2005   H         1 RES1   0.0000
    53 C27      4.6996   3.2894  11.8292   C.ar      1 RES1   0.0000
    54 H16      4.9954   2.4656  12.1982   H         1 RES1   0.0000
    55 C28      3.7347   3.9967  12.4675   C.ar      1 RES1   0.0000
    56 H17      3.3589   3.6647  13.2742   H         1 RES1   0.0000
    57 C29      3.2887   5.2272  11.9336   C.ar      1 RES1   0.0000
    58 C30      2.2768   6.0011  12.5275   C.ar      1 RES1   0.0000
    59 H18      1.8821   5.7196  13.3448   H         1 RES1   0.0000
    60 C31      1.8603   7.1514  11.9358   C.ar      1 RES1   0.0000
    61 H19      1.1621   7.6701  12.3190   H         1 RES1   0.0000
    62 C32      2.4910   7.5565  10.7378   C.ar      1 RES1   0.0000
    63 C33      3.8414   5.7103  10.7164   C.ar      1 RES1   0.0000
    64 C34      2.1101   8.8058  10.0758   C.2       1 RES1   0.0000
    65 C35      1.0554  10.6777   9.6172   C.ar      1 RES1   0.0000
    66 C36      0.1168  11.7107   9.7389   C.ar      1 RES1   0.0000
    67 H20     -0.4801  11.7431  10.4774   H         1 RES1   0.0000
    68 C37      0.0844  12.6782   8.7620   C.ar      1 RES1   0.0000
    69 H21     -0.5581  13.3747   8.8197   H         1 RES1   0.0000
    70 C38      0.9709  12.6585   7.6895   C.ar      1 RES1   0.0000
    71 H22      0.9292  13.3476   7.0376   H         1 RES1   0.0000
    72 C39      1.9066  11.6575   7.5572   C.ar      1 RES1   0.0000
    73 H23      2.5116  11.6465   6.8239   H         1 RES1   0.0000
    74 C40      1.9414  10.6590   8.5302   C.ar      1 RES1   0.0000
    75 C41      6.2438  13.9049   4.7288   C.3       1 RES1   0.0000
    76 H24      5.2751  13.7535   4.7295   H         1 RES1   0.0000
    77 H25      6.4540  14.6697   4.1534   H         1 RES1   0.0000
    78 H26      6.5466  14.0897   5.6420   H         1 RES1   0.0000
    79 C42     10.5460  13.7749   4.2536   C.3       1 RES1   0.0000
    80 H27     10.7596  13.6336   3.2967   H         1 RES1   0.0000
    81 H28     10.9572  13.0377   4.7723   H         1 RES1   0.0000
    82 C43     11.1287  15.0899   4.7063   C.3       1 RES1   0.0000
    83 H29     12.0963  15.0898   4.5493   H         1 RES1   0.0000
    84 H30     10.9532  15.2126   5.6624   H         1 RES1   0.0000
    85 H31     10.7154  15.8210   4.2017   H         1 RES1   0.0000
    86 C44     10.7740   4.8047   1.6426   C.3       1 RES1   0.0000
    87 H32     10.9884   5.0448   2.5794   H         1 RES1   0.0000
    88 H33     11.1821   5.4840   1.0481   H         1 RES1   0.0000
    89 C45     11.3493   3.4324   1.3222   C.3       1 RES1   0.0000
    90 H34     12.3213   3.4484   1.4477   H         1 RES1   0.0000
    91 H35     11.1432   3.2008   0.3921   H         1 RES1   0.0000
    92 H36     10.9539   2.7638   1.9197   H         1 RES1   0.0000
    93 C46      6.5049   4.4869   1.2124   C.3       1 RES1   0.0000
    94 H37      5.5345   4.6018   1.1392   H         1 RES1   0.0000
    95 H38      6.7023   3.7966   1.8807   H         1 RES1   0.0000
    96 H39      6.8679   4.2144   0.3438   H         1 RES1   0.0000
    97 H40      8.9141   4.0672   1.2358   H         1 RES1   0.0000
    98 H41      4.8927   6.5414   7.0264   H         1 RES1   0.0000
    99 H42      8.7185  14.4402   4.7555   H         1 RES1   0.0000
@<TRIPOS>BOND
     1     1    64    1
     2     2    19    1
     3     3    39    2
     4     4    46    2
     5     5    47    1
     6     6    28    1
     7     7    43    1
     8     8    62   ar
     9     9    64    2
    10    10    16    1
    11    11    23    1
    12    12    13   ar
    13    13    14    1
    14    15    13   ar
    15    16    15   ar
    16    17    16   ar
    17    18    17    1
    18    19    12   ar
    19    20     2    1
    20    21    20   ar
    21    22    21    1
    22    23    21   ar
    23    24    23   ar
    24    25    24   ar
    25    26    25    1
    26    27    20   ar
    27    28    12    1
    28    29    28    1
    29    30    29   ar
    30    31    30    1
    31    32    30   ar
    32    33    32    1
    33    34    32   ar
    34    35    34    1
    35    36    34   ar
    36    37    36    1
    37    38    29   ar
    38    39     6   am
    39    40     6    1
    40    41    40    1
    41    42    40    1
    42    43    40    1
    43    44    43    1
    44    45    43    1
    45    46     7   am
    46    47    46    1
    47    48    47    1
    48    49    47    1
    49    50     5    1
    50    51    50   ar
    51    52    51    1
    52    53    51   ar
    53    54    53    1
    54    55    53   ar
    55    56    55    1
    56    57    55   ar
    57    58    57   ar
    58    59    58    1
    59    60    58   ar
    60    61    60    1
    61    62    60   ar
    62    63     8   ar
    63    64    62    1
    64    65     9    1
    65    66    65   ar
    66    67    66    1
    67    68    66   ar
    68    69    68    1
    69    70    68   ar
    70    71    70    1
    71    72    70   ar
    72    73    72    1
    73    74     1    1
    74    75    15    1
    75    76    75    1
    76    77    75    1
    77    78    75    1
    78    79    10    1
    79    80    79    1
    80    81    79    1
    81    82    79    1
    82    83    82    1
    83    84    82    1
    84    85    82    1
    85    86    11    1
    86    87    86    1
    87    88    86    1
    88    89    86    1
    89    90    89    1
    90    91    89    1
    91    92    89    1
    92    93    24    1
    93    94    93    1
    94    95    93    1
    95    96    93    1
    96    97    11    1
    97    98     7    1
    98    99    10    1
    99    17    19   ar
   100    25    27   ar
   101    27    28    1
   102    36    38   ar
   103    38    39    1
   104    50    63   ar
   105    57    63   ar
   106    65    74   ar
   107    72    74   ar
@<TRIPOS>SUBSTRUCTURE
     1 RES1        1 GROUP             0 ****  ****    0  
@<TRIPOS>CRYSIN
    9.0642   11.8519   18.7320   86.0720   83.4580   81.9050     2     1
