@<TRIPOS>MOLECULE
FUGHAQ
    77    78     1     0     0
SMALL
NO_CHARGES
****
Generated from the CSD

@<TRIPOS>ATOM
     1 C1      10.1011  11.1209   4.5715   C.ar      1 RES1   0.0000
     2 C2       9.9005  10.4956   3.3481   C.ar      1 RES1   0.0000
     3 C3      10.2417  11.1209   2.1629   C.ar      1 RES1   0.0000
     4 C4      10.7898  12.4017   2.1939   C.ar      1 RES1   0.0000
     5 C5      10.9914  13.0328   3.4054   C.ar      1 RES1   0.0000
     6 C6      10.6543  12.3970   4.5929   C.ar      1 RES1   0.0000
     7 C7       9.7205  10.4424   5.8544   C.3       1 RES1   0.0000
     8 O1       8.3204  10.7013   6.1835   O.3       1 RES1   0.0000
     9 C8       7.4414   9.7142   5.9307   C.2       1 RES1   0.0000
    10 O2       7.7351   8.6126   5.4943   O.2       1 RES1   0.0000
    11 N1       6.1787  10.1049   6.2265   N.am      1 RES1   0.0000
    12 C9       5.1322   9.0958   6.3719   C.3       1 RES1   0.0000
    13 C10      4.8427   8.3618   5.0627   C.2       1 RES1   0.0000
    14 O3       4.4570   7.1966   5.0603   O.2       1 RES1   0.0000
    15 N2       5.0268   9.0888   3.9419   N.am      1 RES1   0.0000
    16 C11      4.7165   8.6600   2.5779   C.3       1 RES1   0.0000
    17 C12      5.6276   7.5110   2.1152   C.2       1 RES1   0.0000
    18 O4       5.3846   6.9389   1.0588   O.2       1 RES1   0.0000
    19 N3       6.7227   7.2278   2.8879   N.am      1 RES1   0.0000
    20 C13      7.8095   6.4314   2.4944   C.ar      1 RES1   0.0000
    21 C14      7.6947   5.3715   1.5787   C.ar      1 RES1   0.0000
    22 C15      8.8395   4.6837   1.1924   C.ar      1 RES1   0.0000
    23 C16     10.0887   5.0397   1.6764   C.ar      1 RES1   0.0000
    24 C17     10.1880   6.0546   2.6375   C.ar      1 RES1   0.0000
    25 C18      9.0525   6.7216   3.0500   C.ar      1 RES1   0.0000
    26 C19     11.2986   4.3774   1.1065   C.2       1 RES1   0.0000
    27 O5      11.2676   3.4827   0.2981   O.2       1 RES1   0.0000
    28 O6      12.4185   4.9276   1.5596   O.3       1 RES1   0.0000
    29 C20     13.6811   4.3785   1.0517   C.3       1 RES1   0.0000
    30 C21     14.1682   3.3429   1.9912   C.3       1 RES1   0.0000
    31 C22      3.8551   9.7546   6.9538   C.3       1 RES1   0.0000
    32 C23      2.7704   8.7282   7.3258   C.3       1 RES1   0.0000
    33 C24      3.1819   7.6682   8.3369   C.3       1 RES1   0.0000
    34 C25      3.2719  10.8273   6.0333   C.3       1 RES1   0.0000
    35 C26      3.2512   8.2000   2.4634   C.3       1 RES1   0.0000
    36 C27      5.0154   9.8645   1.6216   C.3       1 RES1   0.0000
    37 C28      4.1829  11.1082   1.9817   C.3       1 RES1   0.0000
    38 C29      6.4962  10.2286   1.5620   C.3       1 RES1   0.0000
    39 H1       9.5323   9.5813   3.3243   H         1 RES1   0.0000
    40 H2      10.1104  10.7094   1.3330   H         1 RES1   0.0000
    41 H3      10.9925  12.8733   1.3474   H         1 RES1   0.0000
    42 H4      11.4041  13.9459   3.4817   H         1 RES1   0.0000
    43 H5      10.7981  12.8640   5.4204   H         1 RES1   0.0000
    44 H6      10.2510  10.8331   6.6462   H         1 RES1   0.0000
    45 H7       9.8115   9.4749   5.7829   H         1 RES1   0.0000
    46 H8       6.0836  10.8840   6.5722   H         1 RES1   0.0000
    47 H9       5.4766   8.3930   7.0563   H         1 RES1   0.0000
    48 H10      5.2946   9.8668   4.0349   H         1 RES1   0.0000
    49 H11      6.7878   7.7700   3.6152   H         1 RES1   0.0000
    50 H12      6.8168   5.0917   1.1661   H         1 RES1   0.0000
    51 H13      8.8012   3.9289   0.5461   H         1 RES1   0.0000
    52 H14     11.0204   6.3135   2.9189   H         1 RES1   0.0000
    53 H15      9.0794   7.3897   3.6963   H         1 RES1   0.0000
    54 H16     14.3306   5.2986   0.9443   H         1 RES1   0.0000
    55 H17     13.5798   3.9069   0.1264   H         1 RES1   0.0000
    56 H18     14.3399   3.9116   2.6422   H         1 RES1   0.0000
    57 H19     15.0410   3.0793   1.8529   H         1 RES1   0.0000
    58 H20     13.4888   2.4366   2.0556   H         1 RES1   0.0000
    59 H21      4.1312  10.1349   7.7932   H         1 RES1   0.0000
    60 H22      1.9586   9.2761   7.7407   H         1 RES1   0.0000
    61 H23      2.4032   8.2786   6.4864   H         1 RES1   0.0000
    62 H24      2.3960   7.1446   8.5849   H         1 RES1   0.0000
    63 H25      3.5480   8.0925   9.2526   H         1 RES1   0.0000
    64 H26      3.8624   7.0961   7.9864   H         1 RES1   0.0000
    65 H27      3.9596  11.5417   5.8044   H         1 RES1   0.0000
    66 H28      2.8924  10.4482   5.2440   H         1 RES1   0.0000
    67 H29      2.5563  11.3509   6.5031   H         1 RES1   0.0000
    68 H30      2.5801   8.9085   2.7853   H         1 RES1   0.0000
    69 H31      3.1230   7.3839   2.9165   H         1 RES1   0.0000
    70 H32      3.0320   8.1190   1.5548   H         1 RES1   0.0000
    71 H33      4.7186   9.4784   0.7249   H         1 RES1   0.0000
    72 H34      4.2346  11.2943   2.9427   H         1 RES1   0.0000
    73 H35      4.5128  11.7613   1.3187   H         1 RES1   0.0000
    74 H36      3.3494  10.8123   1.8553   H         1 RES1   0.0000
    75 H37      6.9771   9.4356   1.2877   H         1 RES1   0.0000
    76 H38      6.6886  11.0250   0.8561   H         1 RES1   0.0000
    77 H39      6.8395  10.5152   2.4801   H         1 RES1   0.0000
@<TRIPOS>BOND
     1     1     2   ar
     2     2     3   ar
     3     3     4   ar
     4     4     5   ar
     5     5     6   ar
     6     6     1   ar
     7     7     1    1
     8     8     7    1
     9     9     8    1
    10    10     9    2
    11    11     9   am
    12    12    11    1
    13    13    12    1
    14    14    13    2
    15    15    13   am
    16    16    15    1
    17    17    16    1
    18    18    17    2
    19    19    17   am
    20    20    19    1
    21    21    20   ar
    22    22    21   ar
    23    23    22   ar
    24    24    23   ar
    25    25    20   ar
    26    26    23    1
    27    27    26    2
    28    28    26    1
    29    29    28    1
    30    30    29    1
    31    31    12    1
    32    32    31    1
    33    33    32    1
    34    34    31    1
    35    35    16    1
    36    36    16    1
    37    37    36    1
    38    38    36    1
    39    39     2    1
    40    40     3    1
    41    41     4    1
    42    42     5    1
    43    43     6    1
    44    44     7    1
    45    45     7    1
    46    46    11    1
    47    47    12    1
    48    48    15    1
    49    49    19    1
    50    50    21    1
    51    51    22    1
    52    52    24    1
    53    53    25    1
    54    54    29    1
    55    55    29    1
    56    56    30    1
    57    57    30    1
    58    58    30    1
    59    59    31    1
    60    60    32    1
    61    61    32    1
    62    62    33    1
    63    63    33    1
    64    64    33    1
    65    65    34    1
    66    66    34    1
    67    67    34    1
    68    68    35    1
    69    69    35    1
    70    70    35    1
    71    71    36    1
    72    72    37    1
    73    73    37    1
    74    74    37    1
    75    75    38    1
    76    76    38    1
    77    77    38    1
    78    24    25   ar
@<TRIPOS>SUBSTRUCTURE
     1 RES1        1 GROUP             0 ****  ****    0  
@<TRIPOS>CRYSIN
   10.3410   11.5590   23.8470   90.0000   90.0000   90.0000    19     1
