@<TRIPOS>MOLECULE
01
    14    14     1     0     0
SMALL
NO_CHARGES
****
Generated from the CSD

@<TRIPOS>ATOM
     1 C1      10.1011  11.1209   4.5715   C.ar      1 RES1   0.0000
     2 C2       9.9005  10.4956   3.3481   C.ar      1 RES1   0.0000
     3 C3      10.2417  11.1209   2.1629   C.ar      1 RES1   0.0000
     4 C4      10.7898  12.4017   2.1939   C.ar      1 RES1   0.0000
     5 C5      10.9914  13.0328   3.4054   C.ar      1 RES1   0.0000
     6 C6      10.6543  12.3970   4.5929   C.ar      1 RES1   0.0000
     7 C7       9.7205  10.4424   5.8544   C.3       1 RES1   0.0000
     8 H1       9.5323   9.5813   3.3243   H         1 RES1   0.0000
     9 H2      10.1104  10.7094   1.3330   H         1 RES1   0.0000
    10 H3      10.9925  12.8733   1.3474   H         1 RES1   0.0000
    11 H4      11.4041  13.9459   3.4817   H         1 RES1   0.0000
    12 H5      10.7981  12.8640   5.4204   H         1 RES1   0.0000
    13 H6      10.2510  10.8331   6.6462   H         1 RES1   0.0000
    14 H7       9.8115   9.4749   5.7829   H         1 RES1   0.0000
@<TRIPOS>BOND
     1     1     2   ar
     2     2     3   ar
     3     3     4   ar
     4     4     5   ar
     5     5     6   ar
     6     6     1   ar
     7     7     1    1
     8     8     2    1
     9     9     3    1
    10    10     4    1
    11    11     5    1
    12    12     6    1
    13    13     7    1
    14    14     7    1
@<TRIPOS>SUBSTRUCTURE
     1 RES1        1 GROUP             0 ****  ****    0  
