@<TRIPOS>MOLECULE
02
    20    20     1     0     0
SMALL
NO_CHARGES
****
Generated from the CSD

@<TRIPOS>ATOM
     1 C13      7.8095   6.4314   2.4944   C.ar      1 RES2   0.0000
     2 C14      7.6947   5.3715   1.5787   C.ar      1 RES2   0.0000
     3 C15      8.8395   4.6837   1.1924   C.ar      1 RES2   0.0000
     4 C16     10.0887   5.0397   1.6764   C.ar      1 RES2   0.0000
     5 C17     10.1880   6.0546   2.6375   C.ar      1 RES2   0.0000
     6 C18      9.0525   6.7216   3.0500   C.ar      1 RES2   0.0000
     7 C19     11.2986   4.3774   1.1065   C.2       1 RES2   0.0000
     8 O5      11.2676   3.4827   0.2981   O.2       1 RES2   0.0000
     9 O6      12.4185   4.9276   1.5596   O.3       1 RES2   0.0000
    10 C20     13.6811   4.3785   1.0517   C.3       1 RES2   0.0000
    11 C21     14.1682   3.3429   1.9912   C.3       1 RES2   0.0000
    12 H12      6.8168   5.0917   1.1661   H         1 RES2   0.0000
    13 H13      8.8012   3.9289   0.5461   H         1 RES2   0.0000
    14 H14     11.0204   6.3135   2.9189   H         1 RES2   0.0000
    15 H15      9.0794   7.3897   3.6963   H         1 RES2   0.0000
    16 H16     14.3306   5.2986   0.9443   H         1 RES2   0.0000
    17 H17     13.5798   3.9069   0.1264   H         1 RES2   0.0000
    18 H18     14.3399   3.9116   2.6422   H         1 RES2   0.0000
    19 H19     15.0410   3.0793   1.8529   H         1 RES2   0.0000
    20 H20     13.4888   2.4366   2.0556   H         1 RES2   0.0000
@<TRIPOS>BOND
     1     2     1   ar
     2     3     2   ar
     3     4     3   ar
     4     5     4   ar
     5     6     1   ar
     6     7     4    1
     7     8     7    2
     8     9     7    1
     9    10     9    1
    10    11    10    1
    11    12     2    1
    12    13     3    1
    13    14     5    1
    14    15     6    1
    15    16    10    1
    16    17    10    1
    17    18    11    1
    18    19    11    1
    19    20    11    1
    20     5     6   ar
@<TRIPOS>SUBSTRUCTURE
     1 RES2        1 GROUP             0 ****  ****    0  
