@<TRIPOS>MOLECULE
FURGOR
    56    59     1     0     0
SMALL
NO_CHARGES
****
Generated from the CSD

@<TRIPOS>ATOM
     1 C1       2.5857  12.3953   7.9976   C.ar      1 RES1   0.0000
     2 C2       2.0712  13.3956   8.8559   C.ar      1 RES1   0.0000
     3 H1       1.9727  14.2870   8.5439   H         1 RES1   0.0000
     4 C3       1.7167  13.0766  10.1348   C.ar      1 RES1   0.0000
     5 C4       1.8275  11.7835  10.6664   C.ar      1 RES1   0.0000
     6 C5       2.3067  10.7911   9.7942   C.ar      1 RES1   0.0000
     7 H2       2.3740   9.8957  10.1063   H         1 RES1   0.0000
     8 C6       2.6792  11.0720   8.5055   C.ar      1 RES1   0.0000
     9 H3       3.0034  10.3762   7.9466   H         1 RES1   0.0000
    10 C7       0.9035  13.9391  12.2505   C.2       1 RES1   0.0000
    11 C8       1.0348  12.6093  12.7968   C.2       1 RES1   0.0000
    12 C9       1.4918  11.5840  12.0160   C.2       1 RES1   0.0000
    13 H4       1.5846  10.7175  12.3926   H         1 RES1   0.0000
    14 C10      2.8877  14.0481   6.2030   C.3       1 RES1   0.0000
    15 H5       2.0260  14.4419   6.4910   H         1 RES1   0.0000
    16 H6       2.8860  14.0074   5.2133   H         1 RES1   0.0000
    17 C11      4.0168  14.9460   6.6579   C.3       1 RES1   0.0000
    18 H7       4.0234  14.9919   7.6381   H         1 RES1   0.0000
    19 H8       3.8871  15.8453   6.2892   H         1 RES1   0.0000
    20 H9       4.8702  14.5837   6.3407   H         1 RES1   0.0000
    21 C12      3.7091  11.7402   5.8870   C.3       1 RES1   0.0000
    22 H10      4.1341  11.0549   6.4633   H         1 RES1   0.0000
    23 H11      4.4279  12.2128   5.3953   H         1 RES1   0.0000
    24 C13      2.8023  11.0589   4.8957   C.3       1 RES1   0.0000
    25 H12      2.1212  10.5442   5.3755   H         1 RES1   0.0000
    26 H13      3.3300  10.4563   4.3313   H         1 RES1   0.0000
    27 H14      2.3666  11.7336   4.3352   H         1 RES1   0.0000
    28 C14      0.7041  12.4478  14.2069   C.2       1 RES1   0.0000
    29 H15      0.2585  13.1501  14.6670   H         1 RES1   0.0000
    30 C15      0.9396  10.3316  16.9683   C.2       1 RES1   0.0000
    31 C16      1.8201   9.2328  16.4121   C.3       1 RES1   0.0000
    32 H16      1.6387   9.1225  15.4462   H         1 RES1   0.0000
    33 H17      2.7711   9.4848  16.5181   H         1 RES1   0.0000
    34 C17      1.5657   7.9515  17.1122   C.2       1 RES1   0.0000
    35 C18      1.6395   6.5403  18.6956   C.2       1 RES1   0.0000
    36 C19      2.0170   6.0007  19.9907   C.ar      1 RES1   0.0000
    37 C20      2.7498   6.7831  20.8854   C.ar      1 RES1   0.0000
    38 H18      2.9853   7.6666  20.6279   H         1 RES1   0.0000
    39 C21      2.8146   5.1107  22.4173   C.ar      1 RES1   0.0000
    40 H19      3.0879   4.7930  23.2701   H         1 RES1   0.0000
    41 C22      2.1089   4.2508  21.6049   C.ar      1 RES1   0.0000
    42 H20      1.9095   3.3660  21.8857   H         1 RES1   0.0000
    43 C23      1.6986   4.7155  20.3637   C.ar      1 RES1   0.0000
    44 H21      1.2038   4.1536  19.7775   H         1 RES1   0.0000
    45 N1       2.9935  12.6998   6.7326   N.pl3     1 RES1   0.0000
    46 N2       1.0060  11.3700  14.8370   N.2       1 RES1   0.0000
    47 N3       0.5990  11.3332  16.1487   N.am      1 RES1   0.0000
    48 N4       0.8739   6.9433  16.7297   N.2       1 RES1   0.0000
    49 N5       0.9141   6.0047  17.7669   N.2       1 RES1   0.0000
    50 N6       2.0786   7.7722  18.3566   N.pl3     1 RES1   0.0000
    51 H22      2.5750   8.3243  18.8281   H         1 RES1   0.0000
    52 N7       3.1355   6.3447  22.0882   N.ar      1 RES1   0.0000
    53 O1       1.2514  14.1074  10.9235   O.3       1 RES1   0.0000
    54 O2       0.5145  14.9239  12.8296   O.2       1 RES1   0.0000
    55 O3       0.5793  10.3263  18.1359   O.2       1 RES1   0.0000
    56 H23      0.1723  12.0251  16.4271   H         1 RES1   0.0000
@<TRIPOS>BOND
     1     1     2   ar
     2     2     3    1
     3     4     2   ar
     4     5     4   ar
     5     6     5   ar
     6     7     6    1
     7     8     1   ar
     8     9     8    1
     9    10    11    1
    10    11    12    2
    11    12     5    1
    12    13    12    1
    13    14    15    1
    14    16    14    1
    15    17    14    1
    16    18    17    1
    17    19    17    1
    18    20    17    1
    19    21    22    1
    20    23    21    1
    21    24    21    1
    22    25    24    1
    23    26    24    1
    24    27    24    1
    25    28    11    1
    26    29    28    1
    27    30    31    1
    28    31    32    1
    29    33    31    1
    30    34    31    1
    31    35    36    1
    32    36    37   ar
    33    37    38    1
    34    39    40    1
    35    41    39   ar
    36    42    41    1
    37    43    36   ar
    38    44    43    1
    39    45     1    1
    40    46    28    2
    41    47    30   am
    42    48    34    2
    43    49    35    2
    44    50    34    1
    45    51    50    1
    46    52    37   ar
    47    53     4    1
    48    54    10    2
    49    55    30    2
    50    56    47    1
    51     6     8   ar
    52    10    53    1
    53    14    45    1
    54    21    45    1
    55    35    50    1
    56    39    52   ar
    57    41    43   ar
    58    46    47    1
    59    48    49    1
@<TRIPOS>SUBSTRUCTURE
     1 RES1        1 GROUP             0 ****  ****    0  
@<TRIPOS>CRYSIN
    8.2059   13.1278   39.5549   90.0000   90.0000   90.0000    60     1
