@<TRIPOS>MOLECULE
01
    30    31     1     0     0
SMALL
NO_CHARGES
****
Generated from the CSD

@<TRIPOS>ATOM
     1 C1       2.5857  12.3953   7.9976   C.ar      1 RES1   0.0000
     2 C2       2.0712  13.3956   8.8559   C.ar      1 RES1   0.0000
     3 H1       1.9727  14.2870   8.5439   H         1 RES1   0.0000
     4 C3       1.7167  13.0766  10.1348   C.ar      1 RES1   0.0000
     5 C4       1.8275  11.7835  10.6664   C.ar      1 RES1   0.0000
     6 C5       2.3067  10.7911   9.7942   C.ar      1 RES1   0.0000
     7 H2       2.3740   9.8957  10.1063   H         1 RES1   0.0000
     8 C6       2.6792  11.0720   8.5055   C.ar      1 RES1   0.0000
     9 H3       3.0034  10.3762   7.9466   H         1 RES1   0.0000
    10 C7       0.9035  13.9391  12.2505   C.2       1 RES1   0.0000
    11 C8       1.0348  12.6093  12.7968   C.2       1 RES1   0.0000
    12 C9       1.4918  11.5840  12.0160   C.2       1 RES1   0.0000
    13 H4       1.5846  10.7175  12.3926   H         1 RES1   0.0000
    14 C10      2.8877  14.0481   6.2030   C.3       1 RES1   0.0000
    15 H5       2.0260  14.4419   6.4910   H         1 RES1   0.0000
    16 H6       2.8860  14.0074   5.2133   H         1 RES1   0.0000
    17 C11      4.0168  14.9460   6.6579   C.3       1 RES1   0.0000
    18 H7       4.0234  14.9919   7.6381   H         1 RES1   0.0000
    19 H8       3.8871  15.8453   6.2892   H         1 RES1   0.0000
    20 H9       4.8702  14.5837   6.3407   H         1 RES1   0.0000
    21 C12      3.7091  11.7402   5.8870   C.3       1 RES1   0.0000
    22 H10      4.1341  11.0549   6.4633   H         1 RES1   0.0000
    23 H11      4.4279  12.2128   5.3953   H         1 RES1   0.0000
    24 C13      2.8023  11.0589   4.8957   C.3       1 RES1   0.0000
    25 H12      2.1212  10.5442   5.3755   H         1 RES1   0.0000
    26 H13      3.3300  10.4563   4.3313   H         1 RES1   0.0000
    27 H14      2.3666  11.7336   4.3352   H         1 RES1   0.0000
    28 N1       2.9935  12.6998   6.7326   N.pl3     1 RES1   0.0000
    29 O1       1.2514  14.1074  10.9235   O.3       1 RES1   0.0000
    30 O2       0.5145  14.9239  12.8296   O.2       1 RES1   0.0000
@<TRIPOS>BOND
     1     1     2   ar
     2     2     3    1
     3     4     2   ar
     4     5     4   ar
     5     6     5   ar
     6     7     6    1
     7     8     1   ar
     8     9     8    1
     9    10    11    1
    10    11    12    2
    11    12     5    1
    12    13    12    1
    13    14    15    1
    14    16    14    1
    15    17    14    1
    16    18    17    1
    17    19    17    1
    18    20    17    1
    19    21    22    1
    20    23    21    1
    21    24    21    1
    22    25    24    1
    23    26    24    1
    24    27    24    1
    25    28     1    1
    26    29     4    1
    27    30    10    2
    28     6     8   ar
    29    10    29    1
    30    14    28    1
    31    21    28    1
@<TRIPOS>SUBSTRUCTURE
     1 RES1        1 GROUP             0 ****  ****    0  
