@<TRIPOS>MOLECULE
02
    16    17     1     0     0
SMALL
NO_CHARGES
****
Generated from the CSD

@<TRIPOS>ATOM
     1 C17      1.5657   7.9515  17.1122   C.2       1 RES2   0.0000
     2 C18      1.6395   6.5403  18.6956   C.2       1 RES2   0.0000
     3 C19      2.0170   6.0007  19.9907   C.ar      1 RES2   0.0000
     4 C20      2.7498   6.7831  20.8854   C.ar      1 RES2   0.0000
     5 H18      2.9853   7.6666  20.6279   H         1 RES2   0.0000
     6 C21      2.8146   5.1107  22.4173   C.ar      1 RES2   0.0000
     7 H19      3.0879   4.7930  23.2701   H         1 RES2   0.0000
     8 C22      2.1089   4.2508  21.6049   C.ar      1 RES2   0.0000
     9 H20      1.9095   3.3660  21.8857   H         1 RES2   0.0000
    10 C23      1.6986   4.7155  20.3637   C.ar      1 RES2   0.0000
    11 H21      1.2038   4.1536  19.7775   H         1 RES2   0.0000
    12 N4       0.8739   6.9433  16.7297   N.2       1 RES2   0.0000
    13 N5       0.9141   6.0047  17.7669   N.2       1 RES2   0.0000
    14 N6       2.0786   7.7722  18.3566   N.pl3     1 RES2   0.0000
    15 H22      2.5750   8.3243  18.8281   H         1 RES2   0.0000
    16 N7       3.1355   6.3447  22.0882   N.ar      1 RES2   0.0000
@<TRIPOS>BOND
     1     2     3    1
     2     3     4   ar
     3     4     5    1
     4     6     7    1
     5     8     6   ar
     6     9     8    1
     7    10     3   ar
     8    11    10    1
     9    12     1    2
    10    13     2    2
    11    14     1    1
    12    15    14    1
    13    16     4   ar
    14     2    14    1
    15     6    16   ar
    16     8    10   ar
    17    12    13    1
@<TRIPOS>SUBSTRUCTURE
     1 RES2        1 GROUP             0 ****  ****    0  
