@<TRIPOS>MOLECULE
FUWHEL
    73    77     1     0     0
SMALL
NO_CHARGES
****
Generated from the CSD

@<TRIPOS>ATOM
     1 O1       9.7111   0.7314   6.2104   O.2       1 RES1   0.0000
     2 C1       8.9451  -0.1238   5.7626   C.2       1 RES1   0.0000
     3 C2       7.5153   0.0588   5.5873   C.2       1 RES1   0.0000
     4 C3       6.8166  -0.9742   5.0365   C.2       1 RES1   0.0000
     5 H1       5.8851  -0.8590   4.8917   H         1 RES1   0.0000
     6 N1       7.3876  -2.1755   4.6797   N.am      1 RES1   0.0000
     7 O2       9.2899  -3.4513   4.4772   O.2       1 RES1   0.0000
     8 C4       8.7428  -2.4128   4.8129   C.2       1 RES1   0.0000
     9 N2       9.4350  -1.3541   5.3596   N.am      1 RES1   0.0000
    10 H2      10.3742  -1.5440   5.3384   H         1 RES1   0.0000
    11 C5       6.8862   1.3516   5.9981   C.3       1 RES1   0.0000
    12 H3       7.3849   2.0967   5.5790   H         1 RES1   0.0000
    13 H4       6.9690   1.4496   6.9800   H         1 RES1   0.0000
    14 C6       5.4150   1.4680   5.6150   C.3       1 RES1   0.0000
    15 H5       5.3323   1.4227   4.6303   H         1 RES1   0.0000
    16 H6       4.9192   0.6997   5.9967   H         1 RES1   0.0000
    17 C7       4.7889   2.7510   6.1046   C.3       1 RES1   0.0000
    18 H7       4.7599   2.7486   7.0934   H         1 RES1   0.0000
    19 H8       5.3425   3.5193   5.8155   H         1 RES1   0.0000
    20 N3       3.4337   2.9009   5.5764   N.am      1 RES1   0.0000
    21 H9       2.8604   2.1445   5.5182   H         1 RES1   0.0000
    22 C8       2.9990   4.0487   5.0673   C.2       1 RES1   0.0000
    23 O3       3.6638   5.0945   5.1117   O.2       1 RES1   0.0000
    24 C9       1.6067   4.0499   4.4924   C.ar      1 RES1   0.0000
    25 C10      1.1409   3.1419   3.5153   C.ar      1 RES1   0.0000
    26 C11     -0.1736   3.2718   3.0744   C.ar      1 RES1   0.0000
    27 H10     -0.5082   2.6665   2.4244   H         1 RES1   0.0000
    28 C12     -1.0141   4.2803   3.5709   C.ar      1 RES1   0.0000
    29 H11     -1.9100   4.3453   3.2625   H         1 RES1   0.0000
    30 C13     -0.5418   5.1736   4.5044   C.ar      1 RES1   0.0000
    31 H12     -1.1089   5.8537   4.8488   H         1 RES1   0.0000
    32 C14      0.7853   5.0683   4.9387   C.ar      1 RES1   0.0000
    33 H13      1.1270   5.7091   5.5514   H         1 RES1   0.0000
    34 P1       2.2267   1.8156   2.8204   P.3       1 RES1   0.0000
    35 C15      3.5110   2.7510   1.9168   C.ar      1 RES1   0.0000
    36 C16      3.5143   4.1210   1.7343   C.ar      1 RES1   0.0000
    37 H14      2.8162   4.6455   2.1091   H         1 RES1   0.0000
    38 C17      4.5269   4.7435   1.0054   C.ar      1 RES1   0.0000
    39 H15      4.5212   5.6871   0.8879   H         1 RES1   0.0000
    40 C18      5.5414   3.9764   0.4536   C.ar      1 RES1   0.0000
    41 H16      6.2260   4.3980  -0.0526   H         1 RES1   0.0000
    42 C19      5.5673   2.6003   0.6306   C.ar      1 RES1   0.0000
    43 H17      6.2632   2.0783   0.2462   H         1 RES1   0.0000
    44 C20      4.5563   1.9900   1.3816   C.ar      1 RES1   0.0000
    45 H18      4.5791   1.0526   1.5296   H         1 RES1   0.0000
    46 C21      1.2123   1.1274   1.4632   C.ar      1 RES1   0.0000
    47 C22      1.3008   1.5587   0.1314   C.ar      1 RES1   0.0000
    48 H19      1.8863   2.2694  -0.1010   H         1 RES1   0.0000
    49 C23      0.5251   0.9399  -0.8505   C.ar      1 RES1   0.0000
    50 H20      0.5981   1.2254  -1.7536   H         1 RES1   0.0000
    51 C24     -0.3380  -0.0711  -0.5325   C.ar      1 RES1   0.0000
    52 H21     -0.8651  -0.4779  -1.2087   H         1 RES1   0.0000
    53 C25     -0.4426  -0.5049   0.7883   C.ar      1 RES1   0.0000
    54 H22     -1.0487  -1.1997   1.0179   H         1 RES1   0.0000
    55 C26      0.3408   0.0846   1.7633   C.ar      1 RES1   0.0000
    56 H23      0.2820  -0.2291   2.6595   H         1 RES1   0.0000
    57 O4       5.9695  -2.6341   2.8686   O.3       1 RES1   0.0000
    58 C27      6.5452  -3.1946   4.0550   C.3       1 RES1   0.0000
    59 H24      7.1055  -3.9862   3.8116   H         1 RES1   0.0000
    60 C28      5.3652  -3.6517   4.9097   C.3       1 RES1   0.0000
    61 H25      5.6148  -4.4176   5.4850   H         1 RES1   0.0000
    62 H26      5.0280  -2.9152   5.4781   H         1 RES1   0.0000
    63 C29      4.3386  -4.0573   3.8696   C.3       1 RES1   0.0000
    64 H27      3.4047  -4.0107   4.2237   H         1 RES1   0.0000
    65 O5       4.6389  -5.3321   3.3128   O.3       1 RES1   0.0000
    66 H28      4.3669  -5.8574   4.0937   H         1 RES1   0.0000
    67 C30      4.5863  -3.0329   2.7522   C.3       1 RES1   0.0000
    68 H29      4.4724  -3.4997   1.8754   H         1 RES1   0.0000
    69 C31      3.6842  -1.8160   2.7549   C.3       1 RES1   0.0000
    70 H30      3.9599  -1.1984   2.0330   H         1 RES1   0.0000
    71 H31      2.7504  -2.0954   2.5807   H         1 RES1   0.0000
    72 O6       3.7542  -1.1367   4.0256   O.3       1 RES1   0.0000
    73 H32      3.0981  -0.3921   3.9692   H         1 RES1   0.0000
@<TRIPOS>BOND
     1     1     2    2
     2     2     3    1
     3     3     4    2
     4     4     5    1
     5     6     4    1
     6     7     8    2
     7     8     6   am
     8     9     2   am
     9    10     9    1
    10    11     3    1
    11    12    11    1
    12    13    11    1
    13    14    11    1
    14    15    14    1
    15    16    14    1
    16    17    14    1
    17    18    17    1
    18    19    17    1
    19    20    17    1
    20    21    20    1
    21    22    20   am
    22    23    22    2
    23    24    22    1
    24    25    24   ar
    25    26    25   ar
    26    27    26    1
    27    28    26   ar
    28    29    28    1
    29    30    28   ar
    30    31    30    1
    31    32    24   ar
    32    33    32    1
    33    34    25    1
    34    35    34    1
    35    36    35   ar
    36    37    36    1
    37    38    36   ar
    38    39    38    1
    39    40    38   ar
    40    41    40    1
    41    42    40   ar
    42    43    42    1
    43    44    35   ar
    44    45    44    1
    45    46    34    1
    46    47    46   ar
    47    48    47    1
    48    49    47   ar
    49    50    49    1
    50    51    49   ar
    51    52    51    1
    52    53    51   ar
    53    54    53    1
    54    55    46   ar
    55    56    55    1
    56    57    58    1
    57    58     6    1
    58    59    58    1
    59    60    58    1
    60    61    60    1
    61    62    60    1
    62    63    60    1
    63    64    63    1
    64    65    63    1
    65    66    65    1
    66    67    57    1
    67    68    67    1
    68    69    67    1
    69    70    69    1
    70    71    69    1
    71    72    69    1
    72    73    72    1
    73     8     9   am
    74    30    32   ar
    75    42    44   ar
    76    53    55   ar
    77    63    67    1
@<TRIPOS>SUBSTRUCTURE
     1 RES1        1 GROUP             0 ****  ****    0  
@<TRIPOS>CRYSIN
    8.2680   12.2540   13.8390   90.0000   92.0630   90.0000     4     1
