@<TRIPOS>MOLECULE
01
    27    28     1     0     0
SMALL
NO_CHARGES
****
Generated from the CSD

@<TRIPOS>ATOM
     1 O1       9.7111   0.7314   6.2104   O.2       1 RES1   0.0000
     2 C1       8.9451  -0.1238   5.7626   C.2       1 RES1   0.0000
     3 C2       7.5153   0.0588   5.5873   C.2       1 RES1   0.0000
     4 C3       6.8166  -0.9742   5.0365   C.2       1 RES1   0.0000
     5 H1       5.8851  -0.8590   4.8917   H         1 RES1   0.0000
     6 N1       7.3876  -2.1755   4.6797   N.am      1 RES1   0.0000
     7 O2       9.2899  -3.4513   4.4772   O.2       1 RES1   0.0000
     8 C4       8.7428  -2.4128   4.8129   C.2       1 RES1   0.0000
     9 N2       9.4350  -1.3541   5.3596   N.am      1 RES1   0.0000
    10 H2      10.3742  -1.5440   5.3384   H         1 RES1   0.0000
    11 O4       5.9695  -2.6341   2.8686   O.3       1 RES1   0.0000
    12 C27      6.5452  -3.1946   4.0550   C.3       1 RES1   0.0000
    13 H24      7.1055  -3.9862   3.8116   H         1 RES1   0.0000
    14 C28      5.3652  -3.6517   4.9097   C.3       1 RES1   0.0000
    15 H25      5.6148  -4.4176   5.4850   H         1 RES1   0.0000
    16 H26      5.0280  -2.9152   5.4781   H         1 RES1   0.0000
    17 C29      4.3386  -4.0573   3.8696   C.3       1 RES1   0.0000
    18 H27      3.4047  -4.0107   4.2237   H         1 RES1   0.0000
    19 O5       4.6389  -5.3321   3.3128   O.3       1 RES1   0.0000
    20 H28      4.3669  -5.8574   4.0937   H         1 RES1   0.0000
    21 C30      4.5863  -3.0329   2.7522   C.3       1 RES1   0.0000
    22 H29      4.4724  -3.4997   1.8754   H         1 RES1   0.0000
    23 C31      3.6842  -1.8160   2.7549   C.3       1 RES1   0.0000
    24 H30      3.9599  -1.1984   2.0330   H         1 RES1   0.0000
    25 H31      2.7504  -2.0954   2.5807   H         1 RES1   0.0000
    26 O6       3.7542  -1.1367   4.0256   O.3       1 RES1   0.0000
    27 H32      3.0981  -0.3921   3.9692   H         1 RES1   0.0000
@<TRIPOS>BOND
     1     1     2    2
     2     2     3    1
     3     3     4    2
     4     4     5    1
     5     6     4    1
     6     7     8    2
     7     8     6   am
     8     9     2   am
     9    10     9    1
    10    11    12    1
    11    12     6    1
    12    13    12    1
    13    14    12    1
    14    15    14    1
    15    16    14    1
    16    17    14    1
    17    18    17    1
    18    19    17    1
    19    20    19    1
    20    21    11    1
    21    22    21    1
    22    23    21    1
    23    24    23    1
    24    25    23    1
    25    26    23    1
    26    27    26    1
    27     8     9   am
    28    17    21    1
@<TRIPOS>SUBSTRUCTURE
     1 RES1        1 GROUP             0 ****  ****    0  
