@<TRIPOS>MOLECULE
02
    33    35     1     0     0
SMALL
NO_CHARGES
****
Generated from the CSD

@<TRIPOS>ATOM
     1 C9       1.6067   4.0499   4.4924   C.ar      1 RES2   0.0000
     2 C10      1.1409   3.1419   3.5153   C.ar      1 RES2   0.0000
     3 C11     -0.1736   3.2718   3.0744   C.ar      1 RES2   0.0000
     4 H10     -0.5082   2.6665   2.4244   H         1 RES2   0.0000
     5 C12     -1.0141   4.2803   3.5709   C.ar      1 RES2   0.0000
     6 H11     -1.9100   4.3453   3.2625   H         1 RES2   0.0000
     7 C13     -0.5418   5.1736   4.5044   C.ar      1 RES2   0.0000
     8 H12     -1.1089   5.8537   4.8488   H         1 RES2   0.0000
     9 C14      0.7853   5.0683   4.9387   C.ar      1 RES2   0.0000
    10 H13      1.1270   5.7091   5.5514   H         1 RES2   0.0000
    11 P1       2.2267   1.8156   2.8204   P.3       1 RES2   0.0000
    12 C15      3.5110   2.7510   1.9168   C.ar      1 RES2   0.0000
    13 C16      3.5143   4.1210   1.7343   C.ar      1 RES2   0.0000
    14 H14      2.8162   4.6455   2.1091   H         1 RES2   0.0000
    15 C17      4.5269   4.7435   1.0054   C.ar      1 RES2   0.0000
    16 H15      4.5212   5.6871   0.8879   H         1 RES2   0.0000
    17 C18      5.5414   3.9764   0.4536   C.ar      1 RES2   0.0000
    18 H16      6.2260   4.3980  -0.0526   H         1 RES2   0.0000
    19 C19      5.5673   2.6003   0.6306   C.ar      1 RES2   0.0000
    20 H17      6.2632   2.0783   0.2462   H         1 RES2   0.0000
    21 C20      4.5563   1.9900   1.3816   C.ar      1 RES2   0.0000
    22 H18      4.5791   1.0526   1.5296   H         1 RES2   0.0000
    23 C21      1.2123   1.1274   1.4632   C.ar      1 RES2   0.0000
    24 C22      1.3008   1.5587   0.1314   C.ar      1 RES2   0.0000
    25 H19      1.8863   2.2694  -0.1010   H         1 RES2   0.0000
    26 C23      0.5251   0.9399  -0.8505   C.ar      1 RES2   0.0000
    27 H20      0.5981   1.2254  -1.7536   H         1 RES2   0.0000
    28 C24     -0.3380  -0.0711  -0.5325   C.ar      1 RES2   0.0000
    29 H21     -0.8651  -0.4779  -1.2087   H         1 RES2   0.0000
    30 C25     -0.4426  -0.5049   0.7883   C.ar      1 RES2   0.0000
    31 H22     -1.0487  -1.1997   1.0179   H         1 RES2   0.0000
    32 C26      0.3408   0.0846   1.7633   C.ar      1 RES2   0.0000
    33 H23      0.2820  -0.2291   2.6595   H         1 RES2   0.0000
@<TRIPOS>BOND
     1     2     1   ar
     2     3     2   ar
     3     4     3    1
     4     5     3   ar
     5     6     5    1
     6     7     5   ar
     7     8     7    1
     8     9     1   ar
     9    10     9    1
    10    11     2    1
    11    12    11    1
    12    13    12   ar
    13    14    13    1
    14    15    13   ar
    15    16    15    1
    16    17    15   ar
    17    18    17    1
    18    19    17   ar
    19    20    19    1
    20    21    12   ar
    21    22    21    1
    22    23    11    1
    23    24    23   ar
    24    25    24    1
    25    26    24   ar
    26    27    26    1
    27    28    26   ar
    28    29    28    1
    29    30    28   ar
    30    31    30    1
    31    32    23   ar
    32    33    32    1
    33     7     9   ar
    34    19    21   ar
    35    30    32   ar
@<TRIPOS>SUBSTRUCTURE
     1 RES2        1 GROUP             0 ****  ****    0  
