@<TRIPOS>MOLECULE
02
    18    18     1     0     0
SMALL
NO_CHARGES
****
Generated from the CSD

@<TRIPOS>ATOM
     1 C14      8.1818   6.3931  13.7454   C.ar      1 RES2   0.0000
     2 C15      8.4055   7.7442  13.5303   C.ar      1 RES2   0.0000
     3 H15      8.9707   8.2255  14.1238   H         1 RES2   0.0000
     4 C16      7.8126   8.4050  12.4556   C.ar      1 RES2   0.0000
     5 H16      7.9876   9.3240  12.2905   H         1 RES2   0.0000
     6 C17      6.9466   7.6731  11.6204   C.ar      1 RES2   0.0000
     7 C18      6.7032   6.3263  11.8542   C.ar      1 RES2   0.0000
     8 H17      6.1054   5.8499  11.2890   H         1 RES2   0.0000
     9 C19      7.3259   5.6732  12.9056   C.ar      1 RES2   0.0000
    10 H18      7.1728   4.7472  13.0548   H         1 RES2   0.0000
    11 C20      6.4918   9.6210  10.2844   C.3       1 RES2   0.0000
    12 H19      7.4376   9.7864  10.0872   H         1 RES2   0.0000
    13 H20      6.2258  10.1459  11.0669   H         1 RES2   0.0000
    14 H21      5.9477   9.8835   9.5146   H         1 RES2   0.0000
    15 O7       8.2872   4.3397  15.3509   O.2       1 RES2   0.0000
    16 O8       9.1877   6.5120  16.1536   O.2       1 RES2   0.0000
    17 O9       6.2962   8.2178  10.5570   O.3       1 RES2   0.0000
    18 S1       8.9770   5.5707  15.0750   S.o       1 RES2   0.0000
@<TRIPOS>BOND
     1     1     2   ar
     2     2     3    1
     3     4     2   ar
     4     5     4    1
     5     6     4   ar
     6     7     6   ar
     7     8     7    1
     8     9     1   ar
     9    10     9    1
    10    11    12    1
    11    13    11    1
    12    14    11    1
    13    15    18    2
    14    16    18    2
    15    17     6    1
    16     1    18    1
    17     7     9   ar
    18    11    17    1
@<TRIPOS>SUBSTRUCTURE
     1 RES2        1 GROUP             0 ****  ****    0  
