@<TRIPOS>MOLECULE
GASCIO
    54    55     1     0     0
SMALL
NO_CHARGES
****
Generated from the CSD

@<TRIPOS>ATOM
     1 C1      10.6337   5.1785  14.4822   C.3       1 RES1   0.0000
     2 H1      11.1206   4.7218  15.2276   H         1 RES1   0.0000
     3 C2      11.4330   6.4093  14.0987   C.3       1 RES1   0.0000
     4 H2      10.9818   6.8491  13.3356   H         1 RES1   0.0000
     5 H3      11.4154   7.0433  14.8597   H         1 RES1   0.0000
     6 C3      12.8776   6.1539  13.7208   C.3       1 RES1   0.0000
     7 H4      12.9172   5.5135  12.9546   H         1 RES1   0.0000
     8 C4      13.6623   7.4170  13.3761   C.3       1 RES1   0.0000
     9 H5      13.5490   8.0728  14.1238   H         1 RES1   0.0000
    10 C5      15.1466   7.1313  13.2080   C.3       1 RES1   0.0000
    11 H6      15.2754   6.4867  12.4800   H         1 RES1   0.0000
    12 H7      15.5039   6.7590  14.0410   H         1 RES1   0.0000
    13 H8      15.6173   7.9631  12.9938   H         1 RES1   0.0000
    14 C6      13.1284   8.0553  12.0874   C.3       1 RES1   0.0000
    15 H9      13.2208   7.4212  11.3456   H         1 RES1   0.0000
    16 H10     13.6411   8.8673  11.8877   H         1 RES1   0.0000
    17 H11     12.1832   8.2861  12.2034   H         1 RES1   0.0000
    18 C7      14.1680   4.3988  14.7493   C.2       1 RES1   0.0000
    19 C8      14.9441   4.0456  15.9892   C.ar      1 RES1   0.0000
    20 C9      15.5570   2.8134  16.0284   C.ar      1 RES1   0.0000
    21 H12     15.4154   2.1836  15.3321   H         1 RES1   0.0000
    22 C10     16.3880   2.5024  17.1042   C.ar      1 RES1   0.0000
    23 C11     16.6177   3.4045  18.1303   C.ar      1 RES1   0.0000
    24 H13     17.1893   3.1906  18.8571   H         1 RES1   0.0000
    25 C12     15.9854   4.6184  18.0522   C.ar      1 RES1   0.0000
    26 C13     15.1211   4.9632  17.0130   C.ar      1 RES1   0.0000
    27 H14     14.6684   5.7992  17.0064   H         1 RES1   0.0000
    28 C14      8.1818   6.3931  13.7454   C.ar      1 RES1   0.0000
    29 C15      8.4055   7.7442  13.5303   C.ar      1 RES1   0.0000
    30 H15      8.9707   8.2255  14.1238   H         1 RES1   0.0000
    31 C16      7.8126   8.4050  12.4556   C.ar      1 RES1   0.0000
    32 H16      7.9876   9.3240  12.2905   H         1 RES1   0.0000
    33 C17      6.9466   7.6731  11.6204   C.ar      1 RES1   0.0000
    34 C18      6.7032   6.3263  11.8542   C.ar      1 RES1   0.0000
    35 H17      6.1054   5.8499  11.2890   H         1 RES1   0.0000
    36 C19      7.3259   5.6732  12.9056   C.ar      1 RES1   0.0000
    37 H18      7.1728   4.7472  13.0548   H         1 RES1   0.0000
    38 C20      6.4918   9.6210  10.2844   C.3       1 RES1   0.0000
    39 H19      7.4376   9.7864  10.0872   H         1 RES1   0.0000
    40 H20      6.2258  10.1459  11.0669   H         1 RES1   0.0000
    41 H21      5.9477   9.8835   9.5146   H         1 RES1   0.0000
    42 N1      17.0854   1.2195  17.1144   N.pl3     1 RES1   0.0000
    43 N2      16.2536   5.5986  19.1121   N.pl3     1 RES1   0.0000
    44 O1      13.4944   5.5452  14.9082   O.3       1 RES1   0.0000
    45 O2      14.2223   3.7338  13.7386   O.2       1 RES1   0.0000
    46 O3      16.7510   0.3631  16.2938   O.2       1 RES1   0.0000
    47 O4      17.9777   1.0612  17.9485   O.2       1 RES1   0.0000
    48 O5      17.0982   5.3087  19.9542   O.2       1 RES1   0.0000
    49 O6      15.6358   6.6647  19.0949   O.2       1 RES1   0.0000
    50 O7       8.2872   4.3397  15.3509   O.2       1 RES1   0.0000
    51 O8       9.1877   6.5120  16.1536   O.2       1 RES1   0.0000
    52 O9       6.2962   8.2178  10.5570   O.3       1 RES1   0.0000
    53 S1       8.9770   5.5707  15.0750   S.o2      1 RES1   0.0000
    54 Br1     10.5115   3.9218  13.0011   Br        1 RES1   0.0000
@<TRIPOS>BOND
     1     1     2    1
     2     3     1    1
     3     4     3    1
     4     5     3    1
     5     6     3    1
     6     7     6    1
     7     8     6    1
     8     9     8    1
     9    10     8    1
    10    11    10    1
    11    12    10    1
    12    13    10    1
    13    14     8    1
    14    15    14    1
    15    16    14    1
    16    17    14    1
    17    18    19    1
    18    19    20   ar
    19    20    21    1
    20    22    20   ar
    21    23    22   ar
    22    24    23    1
    23    25    23   ar
    24    26    19   ar
    25    27    26    1
    26    28    29   ar
    27    29    30    1
    28    31    29   ar
    29    32    31    1
    30    33    31   ar
    31    34    33   ar
    32    35    34    1
    33    36    28   ar
    34    37    36    1
    35    38    39    1
    36    40    38    1
    37    41    38    1
    38    42    22    1
    39    43    25    1
    40    44     6    1
    41    45    18    2
    42    46    42    2
    43    47    42    2
    44    48    43    2
    45    49    43    2
    46    50    53    2
    47    51    53    2
    48    52    33    1
    49    53     1    1
    50    54     1    1
    51    18    44    1
    52    25    26   ar
    53    28    53    1
    54    34    36   ar
    55    38    52    1
@<TRIPOS>SUBSTRUCTURE
     1 RES1        1 GROUP             0 ****  ****    0  
@<TRIPOS>CRYSIN
   14.8023    7.0370   22.5089   90.0000  104.6970   90.0000    14     1
