@<TRIPOS>MOLECULE
01
    15    15     1     0     0
SMALL
NO_CHARGES
****
Generated from the CSD

@<TRIPOS>ATOM
     1 C8      14.9441   4.0456  15.9892   C.ar      1 RES1   0.0000
     2 C9      15.5570   2.8134  16.0284   C.ar      1 RES1   0.0000
     3 H12     15.4154   2.1836  15.3321   H         1 RES1   0.0000
     4 C10     16.3880   2.5024  17.1042   C.ar      1 RES1   0.0000
     5 C11     16.6177   3.4045  18.1303   C.ar      1 RES1   0.0000
     6 H13     17.1893   3.1906  18.8571   H         1 RES1   0.0000
     7 C12     15.9854   4.6184  18.0522   C.ar      1 RES1   0.0000
     8 C13     15.1211   4.9632  17.0130   C.ar      1 RES1   0.0000
     9 H14     14.6684   5.7992  17.0064   H         1 RES1   0.0000
    10 N1      17.0854   1.2195  17.1144   N.pl3     1 RES1   0.0000
    11 N2      16.2536   5.5986  19.1121   N.pl3     1 RES1   0.0000
    12 O3      16.7510   0.3631  16.2938   O.2       1 RES1   0.0000
    13 O4      17.9777   1.0612  17.9485   O.2       1 RES1   0.0000
    14 O5      17.0982   5.3087  19.9542   O.2       1 RES1   0.0000
    15 O6      15.6358   6.6647  19.0949   O.2       1 RES1   0.0000
@<TRIPOS>BOND
     1     1     2   ar
     2     2     3    1
     3     4     2   ar
     4     5     4   ar
     5     6     5    1
     6     7     5   ar
     7     8     1   ar
     8     9     8    1
     9    10     4    1
    10    11     7    1
    11    12    10    2
    12    13    10    2
    13    14    11    2
    14    15    11    2
    15     7     8   ar
@<TRIPOS>SUBSTRUCTURE
     1 RES1        1 GROUP             0 ****  ****    0  
