@<TRIPOS>MOLECULE
02
    15    15     1     0     0
SMALL
NO_CHARGES
****
Generated from the CSD

@<TRIPOS>ATOM
     1 O4     -12.9965  -4.6149   2.1504   O.3       1 RES2   0.0000
     2 C1     -10.7275  -3.7947   2.2231   C.ar      1 RES2   0.0000
     3 H1     -10.9693  -3.0456   2.7186   H         1 RES2   0.0000
     4 C3     -11.6757  -4.7209   1.8358   C.ar      1 RES2   0.0000
     5 C7      -9.0377  -5.0827   1.1134   C.ar      1 RES2   0.0000
     6 C8     -13.4027  -3.6423   3.0855   C.3       1 RES2   0.0000
     7 H2     -14.3535  -3.6887   3.2027   H         1 RES2   0.0000
     8 H3     -12.9672  -3.8061   3.9251   H         1 RES2   0.0000
     9 H4     -13.1612  -2.7701   2.7645   H         1 RES2   0.0000
    10 C10     -9.4107  -4.0069   1.8574   C.ar      1 RES2   0.0000
    11 H5      -8.7623  -3.3979   2.1288   H         1 RES2   0.0000
    12 C12     -9.9904  -5.9975   0.7453   C.ar      1 RES2   0.0000
    13 H7      -9.7506  -6.7419   0.2421   H         1 RES2   0.0000
    14 C13    -11.3016  -5.8129   1.1198   C.ar      1 RES2   0.0000
    15 H8     -11.9400  -6.4445   0.8790   H         1 RES2   0.0000
@<TRIPOS>BOND
     1     1     4    1
     2     2     3    1
     3     4     2   ar
     4     6     1    1
     5     7     6    1
     6     8     6    1
     7     9     6    1
     8    10     2   ar
     9    11    10    1
    10    12     5   ar
    11    13    12    1
    12    14     4   ar
    13    15    14    1
    14     5    10   ar
    15    12    14   ar
@<TRIPOS>SUBSTRUCTURE
     1 RES2        1 GROUP             0 ****  ****    0  
