@<TRIPOS>MOLECULE
01
    32    33     1     0     0
SMALL
NO_CHARGES
****
Generated from the CSD

@<TRIPOS>ATOM
     1 S1      -6.2738  -4.0068  -3.1216   S.o2      1 RES1   0.0000
     2 O2      -6.5331  -2.6081  -3.2313   O.2       1 RES1   0.0000
     3 O3      -7.1300  -4.8299  -2.3259   O.2       1 RES1   0.0000
     4 C2      -4.2050  -5.4445  -2.2434   C.3       1 RES1   0.0000
     5 C5      -6.2511  -4.7096  -4.7404   C.ar      1 RES1   0.0000
     6 C9      -2.0824  -5.3337  -3.6537   C.ar      1 RES1   0.0000
     7 C11     -0.6656  -4.3412  -5.3124   C.ar      1 RES1   0.0000
     8 H6      -0.0689  -3.6707  -5.5557   H         1 RES1   0.0000
     9 C14     -2.6820  -5.3791  -2.2740   C.3       1 RES1   0.0000
    10 H9      -2.3960  -4.5912  -1.7861   H         1 RES1   0.0000
    11 H10     -2.3305  -6.1547  -1.8090   H         1 RES1   0.0000
    12 C15     -1.8486  -6.2599  -5.8628   C.ar      1 RES1   0.0000
    13 H11     -2.0864  -6.9010  -6.4934   H         1 RES1   0.0000
    14 C16     -1.2114  -4.3516  -4.0334   C.ar      1 RES1   0.0000
    15 H12     -0.9812  -3.6830  -3.4295   H         1 RES1   0.0000
    16 C17     -2.3794  -6.3138  -4.5914   C.ar      1 RES1   0.0000
    17 H13     -2.9438  -7.0165  -4.3582   H         1 RES1   0.0000
    18 C18     -7.2952  -5.9890  -6.4348   C.ar      1 RES1   0.0000
    19 H14     -8.0016  -6.5241  -6.7176   H         1 RES1   0.0000
    20 C19     -5.2159  -4.4245  -5.5952   C.ar      1 RES1   0.0000
    21 H15     -4.5055  -3.8951  -5.3124   H         1 RES1   0.0000
    22 C20     -7.2890  -5.4947  -5.1532   C.ar      1 RES1   0.0000
    23 H16     -7.9871  -5.6926  -4.5710   H         1 RES1   0.0000
    24 C21     -6.2836  -5.7068  -7.2934   C.ar      1 RES1   0.0000
    25 H17     -6.3025  -6.0402  -8.1623   H         1 RES1   0.0000
    26 C22     -5.2392  -4.9340  -6.8845   C.ar      1 RES1   0.0000
    27 H18     -4.5421  -4.7484  -7.4692   H         1 RES1   0.0000
    28 C23     -0.9927  -5.2863  -6.1914   C.ar      1 RES1   0.0000
    29 H19     -0.6223  -5.2683  -7.0437   H         1 RES1   0.0000
    30 N4      -4.7831  -4.1423  -2.5145   N.pl3     1 RES1   0.0000
    31 H22     -4.2685  -3.5514  -2.7645   H         1 RES1   0.0000
    32 H24     -4.5003  -6.0894  -2.8919   H         1 RES1   0.0000
@<TRIPOS>BOND
     1     1     2    2
     2     3     1    2
     3     5     1    1
     4     6     9    1
     5     7     8    1
     6     9     4    1
     7    10     9    1
     8    11     9    1
     9    12    13    1
    10    14     6   ar
    11    15    14    1
    12    16     6   ar
    13    17    16    1
    14    18    19    1
    15    20     5   ar
    16    21    20    1
    17    22     5   ar
    18    23    22    1
    19    24    18   ar
    20    25    24    1
    21    26    20   ar
    22    27    26    1
    23    28     7   ar
    24    29    28    1
    25    30     1    1
    26    31    30    1
    27    32     4    1
    28     4    30    1
    29     7    14   ar
    30    12    16   ar
    31    12    28   ar
    32    18    22   ar
    33    24    26   ar
@<TRIPOS>SUBSTRUCTURE
     1 RES1        1 GROUP             0 ****  ****    0  
