@<TRIPOS>MOLECULE
GAXKIC
    57    59     1     0     0
SMALL
NO_CHARGES
****
Generated from the CSD

@<TRIPOS>ATOM
     1 S1      -6.2738  -4.0068  -3.1216   S.o2      1 RES1   0.0000
     2 S2      -7.0939  -6.1102   3.2215   S.2       1 RES1   0.0000
     3 O1      -4.5225  -7.2353  -0.7160   O.2       1 RES1   0.0000
     4 O2      -6.5331  -2.6081  -3.2313   O.2       1 RES1   0.0000
     5 O3      -7.1300  -4.8299  -2.3259   O.2       1 RES1   0.0000
     6 O4     -12.9965  -4.6149   2.1504   O.3       1 RES1   0.0000
     7 N1      -5.4671  -5.6424   1.2472   N.am      1 RES1   0.0000
     8 C1     -10.7275  -3.7947   2.2231   C.ar      1 RES1   0.0000
     9 H1     -10.9693  -3.0456   2.7186   H         1 RES1   0.0000
    10 C2      -4.2050  -5.4445  -2.2434   C.3       1 RES1   0.0000
    11 N2      -5.1137  -5.1850  -0.0115   N.am      1 RES1   0.0000
    12 C3     -11.6757  -4.7209   1.8358   C.ar      1 RES1   0.0000
    13 C4      -4.6481  -6.0392  -0.9185   C.2       1 RES1   0.0000
    14 N3      -7.6600  -5.2740   0.7644   N.am      1 RES1   0.0000
    15 C5      -6.2511  -4.7096  -4.7404   C.ar      1 RES1   0.0000
    16 C6      -6.7405  -5.6434   1.6638   C.2       1 RES1   0.0000
    17 C7      -9.0377  -5.0827   1.1134   C.ar      1 RES1   0.0000
    18 C8     -13.4027  -3.6423   3.0855   C.3       1 RES1   0.0000
    19 H2     -14.3535  -3.6887   3.2027   H         1 RES1   0.0000
    20 H3     -12.9672  -3.8061   3.9251   H         1 RES1   0.0000
    21 H4     -13.1612  -2.7701   2.7645   H         1 RES1   0.0000
    22 C9      -2.0824  -5.3337  -3.6537   C.ar      1 RES1   0.0000
    23 C10     -9.4107  -4.0069   1.8574   C.ar      1 RES1   0.0000
    24 H5      -8.7623  -3.3979   2.1288   H         1 RES1   0.0000
    25 C11     -0.6656  -4.3412  -5.3124   C.ar      1 RES1   0.0000
    26 H6      -0.0689  -3.6707  -5.5557   H         1 RES1   0.0000
    27 C12     -9.9904  -5.9975   0.7453   C.ar      1 RES1   0.0000
    28 H7      -9.7506  -6.7419   0.2421   H         1 RES1   0.0000
    29 C13    -11.3016  -5.8129   1.1198   C.ar      1 RES1   0.0000
    30 H8     -11.9400  -6.4445   0.8790   H         1 RES1   0.0000
    31 C14     -2.6820  -5.3791  -2.2740   C.3       1 RES1   0.0000
    32 H9      -2.3960  -4.5912  -1.7861   H         1 RES1   0.0000
    33 H10     -2.3305  -6.1547  -1.8090   H         1 RES1   0.0000
    34 C15     -1.8486  -6.2599  -5.8628   C.ar      1 RES1   0.0000
    35 H11     -2.0864  -6.9010  -6.4934   H         1 RES1   0.0000
    36 C16     -1.2114  -4.3516  -4.0334   C.ar      1 RES1   0.0000
    37 H12     -0.9812  -3.6830  -3.4295   H         1 RES1   0.0000
    38 C17     -2.3794  -6.3138  -4.5914   C.ar      1 RES1   0.0000
    39 H13     -2.9438  -7.0165  -4.3582   H         1 RES1   0.0000
    40 C18     -7.2952  -5.9890  -6.4348   C.ar      1 RES1   0.0000
    41 H14     -8.0016  -6.5241  -6.7176   H         1 RES1   0.0000
    42 C19     -5.2159  -4.4245  -5.5952   C.ar      1 RES1   0.0000
    43 H15     -4.5055  -3.8951  -5.3124   H         1 RES1   0.0000
    44 C20     -7.2890  -5.4947  -5.1532   C.ar      1 RES1   0.0000
    45 H16     -7.9871  -5.6926  -4.5710   H         1 RES1   0.0000
    46 C21     -6.2836  -5.7068  -7.2934   C.ar      1 RES1   0.0000
    47 H17     -6.3025  -6.0402  -8.1623   H         1 RES1   0.0000
    48 C22     -5.2392  -4.9340  -6.8845   C.ar      1 RES1   0.0000
    49 H18     -4.5421  -4.7484  -7.4692   H         1 RES1   0.0000
    50 C23     -0.9927  -5.2863  -6.1914   C.ar      1 RES1   0.0000
    51 H19     -0.6223  -5.2683  -7.0437   H         1 RES1   0.0000
    52 N4      -4.7831  -4.1423  -2.5145   N.pl3     1 RES1   0.0000
    53 H20     -5.0367  -4.4132  -0.1019   H         1 RES1   0.0000
    54 H21     -7.3988  -5.0856  -0.0892   H         1 RES1   0.0000
    55 H22     -4.2685  -3.5514  -2.7645   H         1 RES1   0.0000
    56 H23     -4.8537  -5.8053   1.7326   H         1 RES1   0.0000
    57 H24     -4.5003  -6.0894  -2.8919   H         1 RES1   0.0000
@<TRIPOS>BOND
     1     1     4    2
     2     2    16    2
     3     3    13    2
     4     5     1    2
     5     6    12    1
     6     7    11    1
     7     8     9    1
     8    10    13    1
     9    11    13   am
    10    12     8   ar
    11    14    16   am
    12    15     1    1
    13    16     7   am
    14    17    14    1
    15    18     6    1
    16    19    18    1
    17    20    18    1
    18    21    18    1
    19    22    31    1
    20    23     8   ar
    21    24    23    1
    22    25    26    1
    23    27    17   ar
    24    28    27    1
    25    29    12   ar
    26    30    29    1
    27    31    10    1
    28    32    31    1
    29    33    31    1
    30    34    35    1
    31    36    22   ar
    32    37    36    1
    33    38    22   ar
    34    39    38    1
    35    40    41    1
    36    42    15   ar
    37    43    42    1
    38    44    15   ar
    39    45    44    1
    40    46    40   ar
    41    47    46    1
    42    48    42   ar
    43    49    48    1
    44    50    25   ar
    45    51    50    1
    46    52     1    1
    47    53    11    1
    48    54    14    1
    49    55    52    1
    50    56     7    1
    51    57    10    1
    52    10    52    1
    53    17    23   ar
    54    25    36   ar
    55    27    29   ar
    56    34    38   ar
    57    34    50   ar
    58    40    44   ar
    59    46    48   ar
@<TRIPOS>SUBSTRUCTURE
     1 RES1        1 GROUP             0 ****  ****    0  
@<TRIPOS>CRYSIN
   10.0732    9.4703   13.6949   90.0000  111.5270   90.0000     4     1
