@<TRIPOS>MOLECULE
GEJRIY
    92    93     1     0     0
SMALL
NO_CHARGES
****
Generated from the CSD

@<TRIPOS>ATOM
     1 O1       2.4222   5.7366   6.1921   O.3       1 RES1   0.0000
     2 C1       1.0532   6.0785   5.8855   C.3       1 RES1   0.0000
     3 H1       0.9256   7.0234   5.9268   H         1 RES1   0.0000
     4 H2       0.7969   5.6956   4.9819   H         1 RES1   0.0000
     5 O2       6.2544   8.9724   4.2672   O.2       1 RES1   0.0000
     6 C2       5.3627   8.2361   4.6325   C.2       1 RES1   0.0000
     7 O3       0.4469   6.0789   8.1730   O.3       1 RES1   0.0000
     8 C3       0.2069   5.4295   6.9372   C.3       1 RES1   0.0000
     9 H3      -0.7396   5.5512   6.6563   H         1 RES1   0.0000
    10 H4       0.3720   4.4843   7.0122   H         1 RES1   0.0000
    11 O4       6.6421   7.7146   6.5150   O.2       1 RES1   0.0000
    12 C4       5.6084   7.4200   5.9296   C.2       1 RES1   0.0000
    13 C5      -0.1423   5.4129   9.2750   C.3       1 RES1   0.0000
    14 H5      -1.0987   5.3695   9.1038   H         1 RES1   0.0000
    15 H6       0.2003   4.4843   9.3311   H         1 RES1   0.0000
    16 C6       4.6381   6.4423   6.3936   C.2       1 RES1   0.0000
    17 C7       3.4417   6.5063   5.7493   C.2       1 RES1   0.0000
    18 C8       3.1826   7.2946   4.5319   C.2       1 RES1   0.0000
    19 H7       2.3362   7.1912   4.1278   H         1 RES1   0.0000
    20 C9       4.0807   8.0767   3.9212   C.2       1 RES1   0.0000
    21 C10      4.8908   5.4993   7.6007   C.3       1 RES1   0.0000
    22 C11      4.0272   5.9530   8.7657   C.3       1 RES1   0.0000
    23 H8       4.1774   5.3637   9.5328   H         1 RES1   0.0000
    24 H9       3.0830   5.9169   8.5067   H         1 RES1   0.0000
    25 H10      4.2633   6.8732   9.0089   H         1 RES1   0.0000
    26 C12      4.5537   4.0568   7.1931   C.3       1 RES1   0.0000
    27 H11      4.7082   3.4581   7.9532   H         1 RES1   0.0000
    28 H12      5.1231   3.7878   6.4428   H         1 RES1   0.0000
    29 H13      3.6123   4.0056   6.9232   H         1 RES1   0.0000
    30 C13      6.3577   5.4708   8.0528   C.3       1 RES1   0.0000
    31 H14      6.4378   6.4178   8.5166   H         1 RES1   0.0000
    32 H15      6.4307   4.7988   8.7835   H         1 RES1   0.0000
    33 H16      6.6810   5.0201   7.3601   H         1 RES1   0.0000
    34 C14      3.8431   8.7639   2.5791   C.3       1 RES1   0.0000
    35 C15      2.4645   8.4151   2.0060   C.3       1 RES1   0.0000
    36 H17      2.3791   7.5126   1.8880   H         1 RES1   0.0000
    37 H18      2.3248   8.8754   1.1209   H         1 RES1   0.0000
    38 H19      1.7540   8.6541   2.5463   H         1 RES1   0.0000
    39 C16      4.9093   8.3035   1.5790   C.3       1 RES1   0.0000
    40 H20      4.8384   7.3146   1.4016   H         1 RES1   0.0000
    41 H21      4.7368   8.7112   0.7433   H         1 RES1   0.0000
    42 H22      5.7311   8.5027   1.8346   H         1 RES1   0.0000
    43 C17      3.9133  10.2864   2.7531   C.3       1 RES1   0.0000
    44 H23      3.2690  10.5526   3.3964   H         1 RES1   0.0000
    45 H24      4.7654  10.5526   3.0010   H         1 RES1   0.0000
    46 H25      3.7068  10.7739   1.9690   H         1 RES1   0.0000
    47 O1D     -2.4222   5.9109  13.5772   O.3       1 RES1   0.0000
    48 C1D     -1.0532   5.5690  13.8838   C.3       1 RES1   0.0000
    49 H1D     -0.9256   4.6241  13.8425   H         1 RES1   0.0000
    50 H2D     -0.7969   5.9519  14.7874   H         1 RES1   0.0000
    51 O2D     -6.2544   2.6751  15.5021   O.2       1 RES1   0.0000
    52 C2D     -5.3627   3.4114  15.1368   C.2       1 RES1   0.0000
    53 O3D     -0.4469   5.5686  11.5963   O.3       1 RES1   0.0000
    54 C3D     -0.2069   6.2180  12.8321   C.3       1 RES1   0.0000
    55 H3D      0.7396   6.0963  13.1130   H         1 RES1   0.0000
    56 H4D     -0.3720   7.1632  12.7571   H         1 RES1   0.0000
    57 O4D     -6.6421   3.9329  13.2543   O.2       1 RES1   0.0000
    58 C4D     -5.6084   4.2275  13.8397   C.2       1 RES1   0.0000
    59 C5D      0.1423   6.2346  10.4943   C.3       1 RES1   0.0000
    60 H5D      1.0987   6.2780  10.6655   H         1 RES1   0.0000
    61 H6D     -0.2003   7.1632  10.4382   H         1 RES1   0.0000
    62 C6D     -4.6381   5.2052  13.3757   C.2       1 RES1   0.0000
    63 C7D     -3.4417   5.1412  14.0200   C.2       1 RES1   0.0000
    64 C8D     -3.1826   4.3529  15.2374   C.2       1 RES1   0.0000
    65 H7D     -2.3362   4.4563  15.6415   H         1 RES1   0.0000
    66 C9D     -4.0807   3.5708  15.8481   C.2       1 RES1   0.0000
    67 C10D    -4.8908   6.1482  12.1686   C.3       1 RES1   0.0000
    68 C11D    -4.0272   5.6945  11.0036   C.3       1 RES1   0.0000
    69 H8D     -4.1774   6.2838  10.2365   H         1 RES1   0.0000
    70 H9D     -3.0830   5.7306  11.2626   H         1 RES1   0.0000
    71 H10D    -4.2633   4.7743  10.7604   H         1 RES1   0.0000
    72 C12D    -4.5537   7.5907  12.5762   C.3       1 RES1   0.0000
    73 H11D    -4.7082   8.1894  11.8161   H         1 RES1   0.0000
    74 H12D    -5.1231   7.8597  13.3265   H         1 RES1   0.0000
    75 H13D    -3.6123   7.6419  12.8461   H         1 RES1   0.0000
    76 C13D    -6.3577   6.1767  11.7165   C.3       1 RES1   0.0000
    77 H14D    -6.4378   5.2297  11.2527   H         1 RES1   0.0000
    78 H15D    -6.4307   6.8487  10.9858   H         1 RES1   0.0000
    79 H16D    -6.6810   6.6274  12.4092   H         1 RES1   0.0000
    80 C14D    -3.8431   2.8836  17.1902   C.3       1 RES1   0.0000
    81 C15D    -2.4645   3.2324  17.7633   C.3       1 RES1   0.0000
    82 H17D    -2.3791   4.1349  17.8813   H         1 RES1   0.0000
    83 H18D    -2.3248   2.7721  18.6484   H         1 RES1   0.0000
    84 H19D    -1.7540   2.9934  17.2230   H         1 RES1   0.0000
    85 C16D    -4.9093   3.3440  18.1903   C.3       1 RES1   0.0000
    86 H20D    -4.8384   4.3329  18.3677   H         1 RES1   0.0000
    87 H21D    -4.7368   2.9363  19.0260   H         1 RES1   0.0000
    88 H22D    -5.7311   3.1448  17.9347   H         1 RES1   0.0000
    89 C17D    -3.9133   1.3611  17.0162   C.3       1 RES1   0.0000
    90 H23D    -3.2690   1.0949  16.3729   H         1 RES1   0.0000
    91 H24D    -4.7654   1.0949  16.7683   H         1 RES1   0.0000
    92 H25D    -3.7068   0.8736  17.8003   H         1 RES1   0.0000
@<TRIPOS>BOND
     1     1     2    1
     2     2     3    1
     3     4     2    1
     4     5     6    2
     5     6    12    1
     6     7     8    1
     7     8     2    1
     8     9     8    1
     9    10     8    1
    10    11    12    2
    11    12    16    1
    12    13     7    1
    13    14    13    1
    14    15    13    1
    15    16    17    2
    16    17     1    1
    17    18    17    1
    18    19    18    1
    19    20     6    1
    20    21    16    1
    21    22    21    1
    22    23    22    1
    23    24    22    1
    24    25    22    1
    25    26    21    1
    26    27    26    1
    27    28    26    1
    28    29    26    1
    29    30    21    1
    30    31    30    1
    31    32    30    1
    32    33    30    1
    33    34    20    1
    34    35    34    1
    35    36    35    1
    36    37    35    1
    37    38    35    1
    38    39    34    1
    39    40    39    1
    40    41    39    1
    41    42    39    1
    42    43    34    1
    43    44    43    1
    44    45    43    1
    45    46    43    1
    46    47    48    1
    47    48    49    1
    48    50    48    1
    49    51    52    2
    50    52    58    1
    51    53    54    1
    52    54    48    1
    53    55    54    1
    54    56    54    1
    55    57    58    2
    56    58    62    1
    57    59    13    1
    58    60    59    1
    59    61    59    1
    60    62    63    2
    61    63    47    1
    62    64    63    1
    63    65    64    1
    64    66    52    1
    65    67    62    1
    66    68    67    1
    67    69    68    1
    68    70    68    1
    69    71    68    1
    70    72    67    1
    71    73    72    1
    72    74    72    1
    73    75    72    1
    74    76    67    1
    75    77    76    1
    76    78    76    1
    77    79    76    1
    78    80    66    1
    79    81    80    1
    80    82    81    1
    81    83    81    1
    82    84    81    1
    83    85    80    1
    84    86    85    1
    85    87    85    1
    86    88    85    1
    87    89    80    1
    88    90    89    1
    89    91    89    1
    90    92    89    1
    91    18    20    2
    92    53    59    1
    93    64    66    2
@<TRIPOS>SUBSTRUCTURE
     1 RES1        1 GROUP             0 ****  ****    0  
@<TRIPOS>CRYSIN
   14.3063   11.6475   19.7693   90.0000   90.0000   90.0000    61     1
