@<TRIPOS>MOLECULE
01
    35    35     1     0     0
SMALL
NO_CHARGES
****
Generated from the CSD

@<TRIPOS>ATOM
     1 O2       6.2544   8.9724   4.2672   O.2       1 RES1   0.0000
     2 C2       5.3627   8.2361   4.6325   C.2       1 RES1   0.0000
     3 O4       6.6421   7.7146   6.5150   O.2       1 RES1   0.0000
     4 C4       5.6084   7.4200   5.9296   C.2       1 RES1   0.0000
     5 C6       4.6381   6.4423   6.3936   C.2       1 RES1   0.0000
     6 C7       3.4417   6.5063   5.7493   C.2       1 RES1   0.0000
     7 C8       3.1826   7.2946   4.5319   C.2       1 RES1   0.0000
     8 H7       2.3362   7.1912   4.1278   H         1 RES1   0.0000
     9 C9       4.0807   8.0767   3.9212   C.2       1 RES1   0.0000
    10 C10      4.8908   5.4993   7.6007   C.3       1 RES1   0.0000
    11 C11      4.0272   5.9530   8.7657   C.3       1 RES1   0.0000
    12 H8       4.1774   5.3637   9.5328   H         1 RES1   0.0000
    13 H9       3.0830   5.9169   8.5067   H         1 RES1   0.0000
    14 H10      4.2633   6.8732   9.0089   H         1 RES1   0.0000
    15 C12      4.5537   4.0568   7.1931   C.3       1 RES1   0.0000
    16 H11      4.7082   3.4581   7.9532   H         1 RES1   0.0000
    17 H12      5.1231   3.7878   6.4428   H         1 RES1   0.0000
    18 H13      3.6123   4.0056   6.9232   H         1 RES1   0.0000
    19 C13      6.3577   5.4708   8.0528   C.3       1 RES1   0.0000
    20 H14      6.4378   6.4178   8.5166   H         1 RES1   0.0000
    21 H15      6.4307   4.7988   8.7835   H         1 RES1   0.0000
    22 H16      6.6810   5.0201   7.3601   H         1 RES1   0.0000
    23 C14      3.8431   8.7639   2.5791   C.3       1 RES1   0.0000
    24 C15      2.4645   8.4151   2.0060   C.3       1 RES1   0.0000
    25 H17      2.3791   7.5126   1.8880   H         1 RES1   0.0000
    26 H18      2.3248   8.8754   1.1209   H         1 RES1   0.0000
    27 H19      1.7540   8.6541   2.5463   H         1 RES1   0.0000
    28 C16      4.9093   8.3035   1.5790   C.3       1 RES1   0.0000
    29 H20      4.8384   7.3146   1.4016   H         1 RES1   0.0000
    30 H21      4.7368   8.7112   0.7433   H         1 RES1   0.0000
    31 H22      5.7311   8.5027   1.8346   H         1 RES1   0.0000
    32 C17      3.9133  10.2864   2.7531   C.3       1 RES1   0.0000
    33 H23      3.2690  10.5526   3.3964   H         1 RES1   0.0000
    34 H24      4.7654  10.5526   3.0010   H         1 RES1   0.0000
    35 H25      3.7068  10.7739   1.9690   H         1 RES1   0.0000
@<TRIPOS>BOND
     1     1     2    2
     2     2     4    1
     3     3     4    2
     4     4     5    1
     5     5     6    2
     6     7     6    1
     7     8     7    1
     8     9     2    1
     9    10     5    1
    10    11    10    1
    11    12    11    1
    12    13    11    1
    13    14    11    1
    14    15    10    1
    15    16    15    1
    16    17    15    1
    17    18    15    1
    18    19    10    1
    19    20    19    1
    20    21    19    1
    21    22    19    1
    22    23     9    1
    23    24    23    1
    24    25    24    1
    25    26    24    1
    26    27    24    1
    27    28    23    1
    28    29    28    1
    29    30    28    1
    30    31    28    1
    31    32    23    1
    32    33    32    1
    33    34    32    1
    34    35    32    1
    35     7     9    2
@<TRIPOS>SUBSTRUCTURE
     1 RES1        1 GROUP             0 ****  ****    0  
