@<TRIPOS>MOLECULE
02
    35    35     1     0     0
SMALL
NO_CHARGES
****
Generated from the CSD

@<TRIPOS>ATOM
     1 O2D     -6.2544   2.6751  15.5021   O.2       1 RES2   0.0000
     2 C2D     -5.3627   3.4114  15.1368   C.2       1 RES2   0.0000
     3 O4D     -6.6421   3.9329  13.2543   O.2       1 RES2   0.0000
     4 C4D     -5.6084   4.2275  13.8397   C.2       1 RES2   0.0000
     5 C6D     -4.6381   5.2052  13.3757   C.2       1 RES2   0.0000
     6 C7D     -3.4417   5.1412  14.0200   C.2       1 RES2   0.0000
     7 C8D     -3.1826   4.3529  15.2374   C.2       1 RES2   0.0000
     8 H7D     -2.3362   4.4563  15.6415   H         1 RES2   0.0000
     9 C9D     -4.0807   3.5708  15.8481   C.2       1 RES2   0.0000
    10 C10D    -4.8908   6.1482  12.1686   C.3       1 RES2   0.0000
    11 C11D    -4.0272   5.6945  11.0036   C.3       1 RES2   0.0000
    12 H8D     -4.1774   6.2838  10.2365   H         1 RES2   0.0000
    13 H9D     -3.0830   5.7306  11.2626   H         1 RES2   0.0000
    14 H10D    -4.2633   4.7743  10.7604   H         1 RES2   0.0000
    15 C12D    -4.5537   7.5907  12.5762   C.3       1 RES2   0.0000
    16 H11D    -4.7082   8.1894  11.8161   H         1 RES2   0.0000
    17 H12D    -5.1231   7.8597  13.3265   H         1 RES2   0.0000
    18 H13D    -3.6123   7.6419  12.8461   H         1 RES2   0.0000
    19 C13D    -6.3577   6.1767  11.7165   C.3       1 RES2   0.0000
    20 H14D    -6.4378   5.2297  11.2527   H         1 RES2   0.0000
    21 H15D    -6.4307   6.8487  10.9858   H         1 RES2   0.0000
    22 H16D    -6.6810   6.6274  12.4092   H         1 RES2   0.0000
    23 C14D    -3.8431   2.8836  17.1902   C.3       1 RES2   0.0000
    24 C15D    -2.4645   3.2324  17.7633   C.3       1 RES2   0.0000
    25 H17D    -2.3791   4.1349  17.8813   H         1 RES2   0.0000
    26 H18D    -2.3248   2.7721  18.6484   H         1 RES2   0.0000
    27 H19D    -1.7540   2.9934  17.2230   H         1 RES2   0.0000
    28 C16D    -4.9093   3.3440  18.1903   C.3       1 RES2   0.0000
    29 H20D    -4.8384   4.3329  18.3677   H         1 RES2   0.0000
    30 H21D    -4.7368   2.9363  19.0260   H         1 RES2   0.0000
    31 H22D    -5.7311   3.1448  17.9347   H         1 RES2   0.0000
    32 C17D    -3.9133   1.3611  17.0162   C.3       1 RES2   0.0000
    33 H23D    -3.2690   1.0949  16.3729   H         1 RES2   0.0000
    34 H24D    -4.7654   1.0949  16.7683   H         1 RES2   0.0000
    35 H25D    -3.7068   0.8736  17.8003   H         1 RES2   0.0000
@<TRIPOS>BOND
     1     1     2    2
     2     2     4    1
     3     3     4    2
     4     4     5    1
     5     5     6    2
     6     7     6    1
     7     8     7    1
     8     9     2    1
     9    10     5    1
    10    11    10    1
    11    12    11    1
    12    13    11    1
    13    14    11    1
    14    15    10    1
    15    16    15    1
    16    17    15    1
    17    18    15    1
    18    19    10    1
    19    20    19    1
    20    21    19    1
    21    22    19    1
    22    23     9    1
    23    24    23    1
    24    25    24    1
    25    26    24    1
    26    27    24    1
    27    28    23    1
    28    29    28    1
    29    30    28    1
    30    31    28    1
    31    32    23    1
    32    33    32    1
    33    34    32    1
    34    35    32    1
    35     7     9    2
@<TRIPOS>SUBSTRUCTURE
     1 RES2        1 GROUP             0 ****  ****    0  
