@<TRIPOS>MOLECULE
HEDLOU
   100   105     1     0     0
SMALL
NO_CHARGES
****
Generated from the CSD

@<TRIPOS>ATOM
     1 S1       0.7372  10.1316  15.7917   S.3       1 RES1   0.0000
     2 O1      -0.0218  14.2372  19.1091   O.2       1 RES1   0.0000
     3 O2       1.5349  14.7416  23.6982   O.3       1 RES1   0.0000
     4 N1       2.0367  14.2605  18.1527   N.am      1 RES1   0.0000
     5 N2       1.3499  14.1005  21.5816   N.am      1 RES1   0.0000
     6 O3       3.4179  14.3316  22.5155   O.2       1 RES1   0.0000
     7 N3       1.3774  13.1182  15.0192   N.am      1 RES1   0.0000
     8 O4       3.4208  13.8005  15.6460   O.2       1 RES1   0.0000
     9 O5       1.5083  13.6316  12.3610   O.3       1 RES1   0.0000
    10 O6       2.6846  11.8249  11.9039   O.2       1 RES1   0.0000
    11 C1       2.3649  14.9272  24.8681   C.3       1 RES1   0.0000
    12 H1       2.7871  15.8006  24.8430   H         1 RES1   0.0000
    13 H2       3.0603  14.2516  24.8962   H         1 RES1   0.0000
    14 C2       1.1953  14.0138  19.1597   C.2       1 RES1   0.0000
    15 C3       0.6546   7.5636  14.6325   C.ar      1 RES1   0.0000
    16 C4       1.4780  14.8139  26.0996   C.3       1 RES1   0.0000
    17 H3       0.7864  15.5083  26.0912   H         1 RES1   0.0000
    18 C5      -0.6308   7.9003  14.1918   C.ar      1 RES1   0.0000
    19 H4      -0.9648   8.7503  14.3699   H         1 RES1   0.0000
    20 C6       3.9567  15.8194  28.8944   C.ar      1 RES1   0.0000
    21 H5       4.5430  16.4939  29.1509   H         1 RES1   0.0000
    22 C7       1.8565  12.0749  14.1302   C.3       1 RES1   0.0000
    23 H6       2.7169  11.7560  14.4727   H         1 RES1   0.0000
    24 C8       2.3507  14.9439  27.3440   C.ar      1 RES1   0.0000
    25 C9      -0.0455  12.7716  25.4667   C.ar      1 RES1   0.0000
    26 H7      -0.3377  13.1471  24.6679   H         1 RES1   0.0000
    27 C10     -1.4182   6.9902  13.4939   C.ar      1 RES1   0.0000
    28 H8      -2.2710   7.2369  13.2130   H         1 RES1   0.0000
    29 C11      0.8557  13.4471  26.2849   C.ar      1 RES1   0.0000
    30 C12      3.2083   8.4603  13.5129   C.ar      1 RES1   0.0000
    31 H9       2.5983   7.9692  13.0113   H         1 RES1   0.0000
    32 C13      2.9834  13.6527  29.2993   C.ar      1 RES1   0.0000
    33 H10      2.9132  12.8860  29.8207   H         1 RES1   0.0000
    34 C14      2.0538  12.4860  12.6715   C.2       1 RES1   0.0000
    35 C15      3.8420   9.5514  15.5470   C.ar      1 RES1   0.0000
    36 H11      3.6513   9.8081  16.4212   H         1 RES1   0.0000
    37 C16      2.1989  13.8360  15.7807   C.2       1 RES1   0.0000
    38 C17      1.5719  14.7216  16.8447   C.3       1 RES1   0.0000
    39 H12      1.8328  15.6461  16.7066   H         1 RES1   0.0000
    40 H13      0.6043  14.6661  16.7979   H         1 RES1   0.0000
    41 C18     -0.9458   5.7202  13.2123   C.ar      1 RES1   0.0000
    42 H14     -1.4704   5.1168  12.7373   H         1 RES1   0.0000
    43 C19      2.2350  13.7871  28.1283   C.ar      1 RES1   0.0000
    44 C20      1.8242  13.3827  20.4049   C.3       1 RES1   0.0000
    45 H15      2.7994  13.4605  20.3485   H         1 RES1   0.0000
    46 C21      2.2018  14.3827  22.5760   C.2       1 RES1   0.0000
    47 C22      4.4187   8.8559  12.9375   C.ar      1 RES1   0.0000
    48 H16      4.6009   8.6325  12.0523   H         1 RES1   0.0000
    49 C23      0.8737  10.9059  14.1542   C.3       1 RES1   0.0000
    50 H17      1.1611  10.2392  13.5099   H         1 RES1   0.0000
    51 H18     -0.0009  11.2237  13.8790   H         1 RES1   0.0000
    52 C24      1.2825  12.8660  27.4920   C.ar      1 RES1   0.0000
    53 C25      0.6014   7.1491  18.9275   C.ar      1 RES1   0.0000
    54 H19     -0.1565   7.1158  19.4656   H         1 RES1   0.0000
    55 C26      1.7730   6.5869  19.3724   C.ar      1 RES1   0.0000
    56 H20      1.8071   6.1858  20.2115   H         1 RES1   0.0000
    57 C27      1.6696   7.8358  16.8691   C.ar      1 RES1   0.0000
    58 C28      2.9076   8.7959  14.8335   C.ar      1 RES1   0.0000
    59 C29      1.4334  11.8926  20.4726   C.3       1 RES1   0.0000
    60 H21      0.4572  11.8393  20.5350   H         1 RES1   0.0000
    61 C30      1.1146   6.2658  14.3543   C.ar      1 RES1   0.0000
    62 H22      1.9599   6.0091  14.6439   H         1 RES1   0.0000
    63 C31      2.0206  11.2237  21.7155   C.3       1 RES1   0.0000
    64 H23      1.7407  10.3059  21.7490   H         1 RES1   0.0000
    65 H24      1.7104  11.6804  22.5025   H         1 RES1   0.0000
    66 H25      2.9787  11.2648  21.6805   H         1 RES1   0.0000
    67 C32      0.3282   5.3580  13.6499   C.ar      1 RES1   0.0000
    68 H26      0.6527   4.5046  13.4718   H         1 RES1   0.0000
    69 C33      0.5322   7.7680  17.6842   C.ar      1 RES1   0.0000
    70 H27     -0.2704   8.1370  17.3916   H         1 RES1   0.0000
    71 C34      5.0496   9.9248  14.9743   C.ar      1 RES1   0.0000
    72 H28      5.6662  10.4148  15.4698   H         1 RES1   0.0000
    73 C35      3.2016  15.9617  27.7158   C.ar      1 RES1   0.0000
    74 H29      3.2747  16.7295  27.1948   H         1 RES1   0.0000
    75 C36      5.3379   9.5670  13.6579   C.ar      1 RES1   0.0000
    76 H30      6.1490   9.8092  13.2739   H         1 RES1   0.0000
    77 C37      2.8506   7.2503  17.3212   C.ar      1 RES1   0.0000
    78 H31      3.6124   7.2791  16.7903   H         1 RES1   0.0000
    79 C38     -0.0968  10.9737  27.0848   C.ar      1 RES1   0.0000
    80 H32     -0.4468  10.1537  27.3508   H         1 RES1   0.0000
    81 C39      3.8306  14.6805  29.6730   C.ar      1 RES1   0.0000
    82 H33      4.3229  14.6061  30.4600   H         1 RES1   0.0000
    83 C40      0.8101  11.6226  27.9023   C.ar      1 RES1   0.0000
    84 H34      1.0957  11.2404  28.7018   H         1 RES1   0.0000
    85 C41      1.5453   8.4859  15.4743   C.3       1 RES1   0.0000
    86 C42     -0.4961  11.5226  25.8728   C.ar      1 RES1   0.0000
    87 H35     -1.0757  11.0448  25.3225   H         1 RES1   0.0000
    88 C43      1.8650  11.1537  19.2061   C.3       1 RES1   0.0000
    89 H36      2.7985  11.3126  19.0470   H         1 RES1   0.0000
    90 H37      1.3527  11.4737  18.4610   H         1 RES1   0.0000
    91 H38      1.7151  10.2126  19.3172   H         1 RES1   0.0000
    92 C44      2.9019   6.6158  18.5759   C.ar      1 RES1   0.0000
    93 H39      3.6902   6.2180  18.8682   H         1 RES1   0.0000
    94 C45      1.6506  14.0505  10.9712   C.3       1 RES1   0.0000
    95 H40      2.5366  14.3916  10.8269   H         1 RES1   0.0000
    96 H41      1.0084  14.7383  10.7775   H         1 RES1   0.0000
    97 H42      1.4998  13.2994  10.3931   H         1 RES1   0.0000
    98 H43      0.4553  14.0227  21.8061   H         1 RES1   0.0000
    99 H44      2.7985  14.1227  18.2935   H         1 RES1   0.0000
   100 H45      0.5312  13.1338  15.1235   H         1 RES1   0.0000
@<TRIPOS>BOND
     1     1    49    1
     2     2    14    2
     3     3    11    1
     4     4    14   am
     5     5    44    1
     6     6    46    2
     7     7    22    1
     8     8    37    2
     9     9    34    1
    10    10    34    2
    11    11    12    1
    12    13    11    1
    13    14    44    1
    14    15    18   ar
    15    16    11    1
    16    17    16    1
    17    18    19    1
    18    20    21    1
    19    22    23    1
    20    24    16    1
    21    25    26    1
    22    27    18   ar
    23    28    27    1
    24    29    16    1
    25    30    31    1
    26    32    33    1
    27    34    22    1
    28    35    36    1
    29    37     7   am
    30    38     4    1
    31    39    38    1
    32    40    38    1
    33    41    27   ar
    34    42    41    1
    35    43    24   ar
    36    44    45    1
    37    46     3    1
    38    47    30   ar
    39    48    47    1
    40    49    22    1
    41    50    49    1
    42    51    49    1
    43    52    29   ar
    44    53    54    1
    45    55    53   ar
    46    56    55    1
    47    57    69   ar
    48    58    30   ar
    49    59    44    1
    50    60    59    1
    51    61    15   ar
    52    62    61    1
    53    63    59    1
    54    64    63    1
    55    65    63    1
    56    66    63    1
    57    67    41   ar
    58    68    67    1
    59    69    53   ar
    60    70    69    1
    61    71    35   ar
    62    72    71    1
    63    73    20   ar
    64    74    73    1
    65    75    47   ar
    66    76    75    1
    67    77    57   ar
    68    78    77    1
    69    79    80    1
    70    81    20   ar
    71    82    81    1
    72    83    52   ar
    73    84    83    1
    74    85     1    1
    75    86    25   ar
    76    87    86    1
    77    88    59    1
    78    89    88    1
    79    90    88    1
    80    91    88    1
    81    92    55   ar
    82    93    92    1
    83    94     9    1
    84    95    94    1
    85    96    94    1
    86    97    94    1
    87    98     5    1
    88    99     4    1
    89   100     7    1
    90     5    46   am
    91    15    85    1
    92    24    73   ar
    93    25    29   ar
    94    32    43   ar
    95    32    81   ar
    96    35    58   ar
    97    37    38    1
    98    43    52    1
    99    57    85    1
   100    58    85    1
   101    61    67   ar
   102    71    75   ar
   103    77    92   ar
   104    79    83   ar
   105    79    86   ar
@<TRIPOS>SUBSTRUCTURE
     1 RES1        1 GROUP             0 ****  ****    0  
@<TRIPOS>CRYSIN
    9.4863   11.1115   38.0560   90.0000   90.0000   90.0000    19     1
