@<TRIPOS>MOLECULE
02
    22    24     1     0     0
SMALL
NO_CHARGES
****
Generated from the CSD

@<TRIPOS>ATOM
     1 C4       1.4780  14.8139  26.0996   C.3       1 RES2   0.0000
     2 H3       0.7864  15.5083  26.0912   H         1 RES2   0.0000
     3 C6       3.9567  15.8194  28.8944   C.ar      1 RES2   0.0000
     4 H5       4.5430  16.4939  29.1509   H         1 RES2   0.0000
     5 C8       2.3507  14.9439  27.3440   C.ar      1 RES2   0.0000
     6 C9      -0.0455  12.7716  25.4667   C.ar      1 RES2   0.0000
     7 H7      -0.3377  13.1471  24.6679   H         1 RES2   0.0000
     8 C11      0.8557  13.4471  26.2849   C.ar      1 RES2   0.0000
     9 C13      2.9834  13.6527  29.2993   C.ar      1 RES2   0.0000
    10 H10      2.9132  12.8860  29.8207   H         1 RES2   0.0000
    11 C19      2.2350  13.7871  28.1283   C.ar      1 RES2   0.0000
    12 C24      1.2825  12.8660  27.4920   C.ar      1 RES2   0.0000
    13 C35      3.2016  15.9617  27.7158   C.ar      1 RES2   0.0000
    14 H29      3.2747  16.7295  27.1948   H         1 RES2   0.0000
    15 C38     -0.0968  10.9737  27.0848   C.ar      1 RES2   0.0000
    16 H32     -0.4468  10.1537  27.3508   H         1 RES2   0.0000
    17 C39      3.8306  14.6805  29.6730   C.ar      1 RES2   0.0000
    18 H33      4.3229  14.6061  30.4600   H         1 RES2   0.0000
    19 C40      0.8101  11.6226  27.9023   C.ar      1 RES2   0.0000
    20 H34      1.0957  11.2404  28.7018   H         1 RES2   0.0000
    21 C42     -0.4961  11.5226  25.8728   C.ar      1 RES2   0.0000
    22 H35     -1.0757  11.0448  25.3225   H         1 RES2   0.0000
@<TRIPOS>BOND
     1     2     1    1
     2     3     4    1
     3     5     1    1
     4     6     7    1
     5     8     1    1
     6     9    10    1
     7    11     5   ar
     8    12     8   ar
     9    13     3   ar
    10    14    13    1
    11    15    16    1
    12    17     3   ar
    13    18    17    1
    14    19    12   ar
    15    20    19    1
    16    21     6   ar
    17    22    21    1
    18     5    13   ar
    19     6     8   ar
    20     9    11   ar
    21     9    17   ar
    22    11    12    1
    23    15    19   ar
    24    15    21   ar
@<TRIPOS>SUBSTRUCTURE
     1 RES2        1 GROUP             0 ****  ****    0  
