@<TRIPOS>MOLECULE
01
    34    36     1     0     0
SMALL
NO_CHARGES
****
Generated from the CSD

@<TRIPOS>ATOM
     1 C3       0.6546   7.5636  14.6325   C.ar      1 RES1   0.0000
     2 C5      -0.6308   7.9003  14.1918   C.ar      1 RES1   0.0000
     3 H4      -0.9648   8.7503  14.3699   H         1 RES1   0.0000
     4 C10     -1.4182   6.9902  13.4939   C.ar      1 RES1   0.0000
     5 H8      -2.2710   7.2369  13.2130   H         1 RES1   0.0000
     6 C12      3.2083   8.4603  13.5129   C.ar      1 RES1   0.0000
     7 H9       2.5983   7.9692  13.0113   H         1 RES1   0.0000
     8 C15      3.8420   9.5514  15.5470   C.ar      1 RES1   0.0000
     9 H11      3.6513   9.8081  16.4212   H         1 RES1   0.0000
    10 C18     -0.9458   5.7202  13.2123   C.ar      1 RES1   0.0000
    11 H14     -1.4704   5.1168  12.7373   H         1 RES1   0.0000
    12 C22      4.4187   8.8559  12.9375   C.ar      1 RES1   0.0000
    13 H16      4.6009   8.6325  12.0523   H         1 RES1   0.0000
    14 C25      0.6014   7.1491  18.9275   C.ar      1 RES1   0.0000
    15 H19     -0.1565   7.1158  19.4656   H         1 RES1   0.0000
    16 C26      1.7730   6.5869  19.3724   C.ar      1 RES1   0.0000
    17 H20      1.8071   6.1858  20.2115   H         1 RES1   0.0000
    18 C27      1.6696   7.8358  16.8691   C.ar      1 RES1   0.0000
    19 C28      2.9076   8.7959  14.8335   C.ar      1 RES1   0.0000
    20 C30      1.1146   6.2658  14.3543   C.ar      1 RES1   0.0000
    21 H22      1.9599   6.0091  14.6439   H         1 RES1   0.0000
    22 C32      0.3282   5.3580  13.6499   C.ar      1 RES1   0.0000
    23 H26      0.6527   4.5046  13.4718   H         1 RES1   0.0000
    24 C33      0.5322   7.7680  17.6842   C.ar      1 RES1   0.0000
    25 H27     -0.2704   8.1370  17.3916   H         1 RES1   0.0000
    26 C34      5.0496   9.9248  14.9743   C.ar      1 RES1   0.0000
    27 H28      5.6662  10.4148  15.4698   H         1 RES1   0.0000
    28 C36      5.3379   9.5670  13.6579   C.ar      1 RES1   0.0000
    29 H30      6.1490   9.8092  13.2739   H         1 RES1   0.0000
    30 C37      2.8506   7.2503  17.3212   C.ar      1 RES1   0.0000
    31 H31      3.6124   7.2791  16.7903   H         1 RES1   0.0000
    32 C41      1.5453   8.4859  15.4743   C.3       1 RES1   0.0000
    33 C44      2.9019   6.6158  18.5759   C.ar      1 RES1   0.0000
    34 H39      3.6902   6.2180  18.8682   H         1 RES1   0.0000
@<TRIPOS>BOND
     1     1     2   ar
     2     2     3    1
     3     4     2   ar
     4     5     4    1
     5     6     7    1
     6     8     9    1
     7    10     4   ar
     8    11    10    1
     9    12     6   ar
    10    13    12    1
    11    14    15    1
    12    16    14   ar
    13    17    16    1
    14    18    24   ar
    15    19     6   ar
    16    20     1   ar
    17    21    20    1
    18    22    10   ar
    19    23    22    1
    20    24    14   ar
    21    25    24    1
    22    26     8   ar
    23    27    26    1
    24    28    12   ar
    25    29    28    1
    26    30    18   ar
    27    31    30    1
    28    33    16   ar
    29    34    33    1
    30     1    32    1
    31     8    19   ar
    32    18    32    1
    33    19    32    1
    34    20    22   ar
    35    26    28   ar
    36    30    33   ar
@<TRIPOS>SUBSTRUCTURE
     1 RES1        1 GROUP             0 ****  ****    0  
