@<TRIPOS>MOLECULE
01
    16    16     1     0     0
SMALL
NO_CHARGES
****
Generated from the CSD

@<TRIPOS>ATOM
     1 C1       0.0187   1.2651   4.8737   C.ar      1 RES1   0.0000
     2 C2       1.6461   0.1792   5.8959   C.ar      1 RES1   0.0000
     3 C3       2.0078   2.2175   5.1265   C.ar      1 RES1   0.0000
     4 C4      -1.7599   2.4738   3.8964   C.3       1 RES1   0.0000
     5 C14      2.3603   4.4281   4.3705   C.3       1 RES1   0.0000
     6 N1       0.3961   0.1288   5.4777   N.ar      1 RES1   0.0000
     7 N2       2.5268   1.1536   5.7517   N.ar      1 RES1   0.0000
     8 N3       0.7643   2.3404   4.6821   N.ar      1 RES1   0.0000
     9 O2      -1.2378   1.2530   4.4594   O.3       1 RES1   0.0000
    10 O8       2.8516   3.2237   4.9966   O.3       1 RES1   0.0000
    11 H1      -2.6743   2.3472   3.6331   H         1 RES1   0.0000
    12 H2      -1.2356   2.7119   3.1282   H         1 RES1   0.0000
    13 H3      -1.7089   3.1762   4.5487   H         1 RES1   0.0000
    14 H8       3.0680   5.0757   4.3323   H         1 RES1   0.0000
    15 H9       1.6323   4.7797   4.8883   H         1 RES1   0.0000
    16 H10      2.0559   4.2338   3.4810   H         1 RES1   0.0000
@<TRIPOS>BOND
     1     1     6   ar
     2     3     7   ar
     3     4     9    1
     4     5    10    1
     5     6     2   ar
     6     7     2   ar
     7     8     1   ar
     8     9     1    1
     9    10     3    1
    10    11     4    1
    11    12     4    1
    12    13     4    1
    13    14     5    1
    14    15     5    1
    15    16     5    1
    16     3     8   ar
@<TRIPOS>SUBSTRUCTURE
     1 RES1        1 GROUP             0 ****  ****    0  
