@<TRIPOS>MOLECULE
02
     8     8     1     0     0
SMALL
NO_CHARGES
****
Generated from the CSD

@<TRIPOS>ATOM
     1 C10      6.3460  -1.4817  12.5219   C.2       1 RES2   0.0000
     2 C11      7.3774  -0.6336  12.5249   C.2       1 RES2   0.0000
     3 C12      8.5476  -1.3770  12.7565   C.2       1 RES2   0.0000
     4 C13      8.1939  -2.6205  12.8731   C.2       1 RES2   0.0000
     5 O3       6.8325  -2.7395  12.7358   O.3       1 RES2   0.0000
     6 H14      8.7208  -3.5199  13.0480   H         1 RES2   0.0000
     7 H15      9.5458  -0.9738  12.7954   H         1 RES2   0.0000
     8 H16      7.2240   0.3744  12.2742   H         1 RES2   0.0000
@<TRIPOS>BOND
     1     1     2    2
     2     2     3    1
     3     3     4    2
     4     4     5    1
     5     5     1    1
     6     6     4    1
     7     7     3    1
     8     8     2    1
@<TRIPOS>SUBSTRUCTURE
     1 RES2        1 GROUP             0 ****  ****    0  
