@<TRIPOS>MOLECULE
HOLXEL
    67    69     1     0     0
SMALL
NO_CHARGES
****
Generated from the CSD

@<TRIPOS>ATOM
     1 S1       3.0389   0.0000   6.4725   S.3       1 RES1   0.0000
     2 P1       4.7233   3.5341  10.4903   P.3       1 RES1   0.0000
     3 O1       5.4618   0.3238  10.4300   O.2       1 RES1   0.0000
     4 O2       7.4401  -7.3920   5.6945   O.3       1 RES1   0.0000
     5 O3       7.8734  -5.5935   4.8245   O.2       1 RES1   0.0000
     6 O4       1.6069   1.9227  10.3608   O.2       1 RES1   0.0000
     7 O5       6.1101   3.6069  10.9540   O.2       1 RES1   0.0000
     8 O6       4.5671   3.2028   8.9906   O.3       1 RES1   0.0000
     9 O7       3.8540   4.8418  10.6673   O.3       1 RES1   0.0000
    10 N1       4.4178  -1.2776   9.1863   N.am      1 RES1   0.0000
    11 N2       3.1889   0.4254   9.8477   N.am      1 RES1   0.0000
    12 C1       3.1337  -1.6566   7.0894   C.3       1 RES1   0.0000
    13 C2       3.1283  -1.5951   8.6001   C.3       1 RES1   0.0000
    14 C3       2.2873  -0.3627   9.0054   C.3       1 RES1   0.0000
    15 C4       1.8719   0.3012   7.7409   C.3       1 RES1   0.0000
    16 C5       4.4663  -0.1493   9.9169   C.2       1 RES1   0.0000
    17 C6       4.3129  -2.3632   6.3766   C.3       1 RES1   0.0000
    18 C7       4.4721  -3.7775   6.6436   C.3       1 RES1   0.0000
    19 C8       5.7210  -4.3800   5.8942   C.3       1 RES1   0.0000
    20 C9       6.0311  -5.6977   6.2283   C.3       1 RES1   0.0000
    21 C10      7.1649  -6.1871   5.4819   C.2       1 RES1   0.0000
    22 C11      8.7491  -7.9943   5.0618   C.3       1 RES1   0.0000
    23 C12      9.8716  -7.8061   6.0504   C.ar      1 RES1   0.0000
    24 C13     10.6058  -6.7142   5.7340   C.ar      1 RES1   0.0000
    25 C14     11.8185  -6.5511   6.4854   C.ar      1 RES1   0.0000
    26 C15     12.1341  -7.4923   7.4641   C.ar      1 RES1   0.0000
    27 C16     11.2242  -8.4085   7.5828   C.ar      1 RES1   0.0000
    28 C17     10.2755  -8.5466   6.9599   C.ar      1 RES1   0.0000
    29 C18      2.7712   1.5750  10.4695   C.2       1 RES1   0.0000
    30 C19      3.7271   2.3406  11.3366   C.3       1 RES1   0.0000
    31 C20      5.5381   3.1752   8.0276   C.3       1 RES1   0.0000
    32 C21      5.1794   2.9493   6.7325   C.3       1 RES1   0.0000
    33 C22      4.3052   6.1997  10.1235   C.3       1 RES1   0.0000
    34 C23      4.4502   6.8523  11.0627   C.3       1 RES1   0.0000
    35 H1       5.1789  -1.8323   9.0627   H         1 RES1   0.0000
    36 H2       2.3863  -2.2038   6.8868   H         1 RES1   0.0000
    37 H3       2.8234  -2.4472   8.8907   H         1 RES1   0.0000
    38 H4       1.4895  -0.5296   9.4938   H         1 RES1   0.0000
    39 H5       1.0268  -0.0477   7.4750   H         1 RES1   0.0000
    40 H6       1.7993   1.2324   7.8882   H         1 RES1   0.0000
    41 H7       5.1137  -1.9264   6.6426   H         1 RES1   0.0000
    42 H8       4.1885  -2.2590   5.4414   H         1 RES1   0.0000
    43 H9       3.6902  -4.2394   6.3598   H         1 RES1   0.0000
    44 H10      4.5859  -3.9068   7.5818   H         1 RES1   0.0000
    45 H11      6.4731  -3.8378   6.0959   H         1 RES1   0.0000
    46 H12      5.5452  -4.3448   4.9609   H         1 RES1   0.0000
    47 H13      5.2809  -6.2436   6.0375   H         1 RES1   0.0000
    48 H14      6.2313  -5.7366   7.1537   H         1 RES1   0.0000
    49 H15      8.9521  -7.5451   4.2471   H         1 RES1   0.0000
    50 H16      8.6296  -8.9218   4.8838   H         1 RES1   0.0000
    51 H17     10.3403  -6.0980   5.0598   H         1 RES1   0.0000
    52 H18     12.3933  -5.8144   6.3272   H         1 RES1   0.0000
    53 H19     12.9273  -7.4748   7.9871   H         1 RES1   0.0000
    54 H20     11.3634  -9.0473   8.2718   H         1 RES1   0.0000
    55 H21      9.7408  -9.3134   7.1567   H         1 RES1   0.0000
    56 H22      3.2222   2.7961  11.9990   H         1 RES1   0.0000
    57 H23      4.3092   1.7168  11.7538   H         1 RES1   0.0000
    58 H24      6.1461   2.4912   8.2748   H         1 RES1   0.0000
    59 H25      5.9735   4.0173   8.0563   H         1 RES1   0.0000
    60 H26      5.9572   2.9605   6.1898   H         1 RES1   0.0000
    61 H27      4.7546   2.1034   6.6673   H         1 RES1   0.0000
    62 H28      4.5816   3.6295   6.4498   H         1 RES1   0.0000
    63 H29      3.6432   6.5737   9.5580   H         1 RES1   0.0000
    64 H30      5.1226   6.1144   9.6440   H         1 RES1   0.0000
    65 H31      4.7382   7.7170  10.8086   H         1 RES1   0.0000
    66 H32      3.6327   6.9100  11.5373   H         1 RES1   0.0000
    67 H33      5.1110   6.4507  11.6233   H         1 RES1   0.0000
@<TRIPOS>BOND
     1     1    12    1
     2     2     7    2
     3     3    16    2
     4     4    21    1
     5     5    21    2
     6     6    29    2
     7     8     2    1
     8     9     2    1
     9    10    13    1
    10    11    14    1
    11    12    13    1
    12    13    14    1
    13    14    15    1
    14    15     1    1
    15    16    10   am
    16    17    12    1
    17    18    17    1
    18    19    18    1
    19    20    19    1
    20    21    20    1
    21    22     4    1
    22    23    22    1
    23    24    23   ar
    24    25    24   ar
    25    26    25   ar
    26    27    26   ar
    27    28    23   ar
    28    29    11   am
    29    30     2    1
    30    31     8    1
    31    32    31    1
    32    33     9    1
    33    34    33    1
    34    35    10    1
    35    36    12    1
    36    37    13    1
    37    38    14    1
    38    39    15    1
    39    40    15    1
    40    41    17    1
    41    42    17    1
    42    43    18    1
    43    44    18    1
    44    45    19    1
    45    46    19    1
    46    47    20    1
    47    48    20    1
    48    49    22    1
    49    50    22    1
    50    51    24    1
    51    52    25    1
    52    53    26    1
    53    54    27    1
    54    55    28    1
    55    56    30    1
    56    57    30    1
    57    58    31    1
    58    59    31    1
    59    60    32    1
    60    61    32    1
    61    62    32    1
    62    63    33    1
    63    64    33    1
    64    65    34    1
    65    66    34    1
    66    67    34    1
    67    11    16   am
    68    27    28   ar
    69    29    30    1
@<TRIPOS>SUBSTRUCTURE
     1 RES1        1 GROUP             0 ****  ****    0  
@<TRIPOS>CRYSIN
   10.5460   12.5500   10.6740   90.0000  112.1500   90.0000     4     1
