@<TRIPOS>MOLECULE
01
    38    39     1     0     0
SMALL
NO_CHARGES
****
Generated from the CSD

@<TRIPOS>ATOM
     1 S1       3.0389   0.0000   6.4725   S.3       1 RES1   0.0000
     2 P1       4.7233   3.5341  10.4903   P.3       1 RES1   0.0000
     3 O1       5.4618   0.3238  10.4300   O.2       1 RES1   0.0000
     4 O4       1.6069   1.9227  10.3608   O.2       1 RES1   0.0000
     5 O5       6.1101   3.6069  10.9540   O.2       1 RES1   0.0000
     6 O6       4.5671   3.2028   8.9906   O.3       1 RES1   0.0000
     7 O7       3.8540   4.8418  10.6673   O.3       1 RES1   0.0000
     8 N1       4.4178  -1.2776   9.1863   N.am      1 RES1   0.0000
     9 N2       3.1889   0.4254   9.8477   N.am      1 RES1   0.0000
    10 C1       3.1337  -1.6566   7.0894   C.3       1 RES1   0.0000
    11 C2       3.1283  -1.5951   8.6001   C.3       1 RES1   0.0000
    12 C3       2.2873  -0.3627   9.0054   C.3       1 RES1   0.0000
    13 C4       1.8719   0.3012   7.7409   C.3       1 RES1   0.0000
    14 C5       4.4663  -0.1493   9.9169   C.2       1 RES1   0.0000
    15 C18      2.7712   1.5750  10.4695   C.2       1 RES1   0.0000
    16 C19      3.7271   2.3406  11.3366   C.3       1 RES1   0.0000
    17 C20      5.5381   3.1752   8.0276   C.3       1 RES1   0.0000
    18 C21      5.1794   2.9493   6.7325   C.3       1 RES1   0.0000
    19 C22      4.3052   6.1997  10.1235   C.3       1 RES1   0.0000
    20 C23      4.4502   6.8523  11.0627   C.3       1 RES1   0.0000
    21 H1       5.1789  -1.8323   9.0627   H         1 RES1   0.0000
    22 H2       2.3863  -2.2038   6.8868   H         1 RES1   0.0000
    23 H3       2.8234  -2.4472   8.8907   H         1 RES1   0.0000
    24 H4       1.4895  -0.5296   9.4938   H         1 RES1   0.0000
    25 H5       1.0268  -0.0477   7.4750   H         1 RES1   0.0000
    26 H6       1.7993   1.2324   7.8882   H         1 RES1   0.0000
    27 H22      3.2222   2.7961  11.9990   H         1 RES1   0.0000
    28 H23      4.3092   1.7168  11.7538   H         1 RES1   0.0000
    29 H24      6.1461   2.4912   8.2748   H         1 RES1   0.0000
    30 H25      5.9735   4.0173   8.0563   H         1 RES1   0.0000
    31 H26      5.9572   2.9605   6.1898   H         1 RES1   0.0000
    32 H27      4.7546   2.1034   6.6673   H         1 RES1   0.0000
    33 H28      4.5816   3.6295   6.4498   H         1 RES1   0.0000
    34 H29      3.6432   6.5737   9.5580   H         1 RES1   0.0000
    35 H30      5.1226   6.1144   9.6440   H         1 RES1   0.0000
    36 H31      4.7382   7.7170  10.8086   H         1 RES1   0.0000
    37 H32      3.6327   6.9100  11.5373   H         1 RES1   0.0000
    38 H33      5.1110   6.4507  11.6233   H         1 RES1   0.0000
@<TRIPOS>BOND
     1     1    10    1
     2     2     5    2
     3     3    14    2
     4     4    15    2
     5     6     2    1
     6     7     2    1
     7     8    11    1
     8     9    12    1
     9    10    11    1
    10    11    12    1
    11    12    13    1
    12    13     1    1
    13    14     8   am
    14    15     9   am
    15    16     2    1
    16    17     6    1
    17    18    17    1
    18    19     7    1
    19    20    19    1
    20    21     8    1
    21    22    10    1
    22    23    11    1
    23    24    12    1
    24    25    13    1
    25    26    13    1
    26    27    16    1
    27    28    16    1
    28    29    17    1
    29    30    17    1
    30    31    18    1
    31    32    18    1
    32    33    18    1
    33    34    19    1
    34    35    19    1
    35    36    20    1
    36    37    20    1
    37    38    20    1
    38     9    14   am
    39    15    16    1
@<TRIPOS>SUBSTRUCTURE
     1 RES1        1 GROUP             0 ****  ****    0  
