@<TRIPOS>MOLECULE
02
    14    14     1     0     0
SMALL
NO_CHARGES
****
Generated from the CSD

@<TRIPOS>ATOM
     1 C11      8.7491  -7.9943   5.0618   C.3       1 RES2   0.0000
     2 C12      9.8716  -7.8061   6.0504   C.ar      1 RES2   0.0000
     3 C13     10.6058  -6.7142   5.7340   C.ar      1 RES2   0.0000
     4 C14     11.8185  -6.5511   6.4854   C.ar      1 RES2   0.0000
     5 C15     12.1341  -7.4923   7.4641   C.ar      1 RES2   0.0000
     6 C16     11.2242  -8.4085   7.5828   C.ar      1 RES2   0.0000
     7 C17     10.2755  -8.5466   6.9599   C.ar      1 RES2   0.0000
     8 H15      8.9521  -7.5451   4.2471   H         1 RES2   0.0000
     9 H16      8.6296  -8.9218   4.8838   H         1 RES2   0.0000
    10 H17     10.3403  -6.0980   5.0598   H         1 RES2   0.0000
    11 H18     12.3933  -5.8144   6.3272   H         1 RES2   0.0000
    12 H19     12.9273  -7.4748   7.9871   H         1 RES2   0.0000
    13 H20     11.3634  -9.0473   8.2718   H         1 RES2   0.0000
    14 H21      9.7408  -9.3134   7.1567   H         1 RES2   0.0000
@<TRIPOS>BOND
     1     2     1    1
     2     3     2   ar
     3     4     3   ar
     4     5     4   ar
     5     6     5   ar
     6     7     2   ar
     7     8     1    1
     8     9     1    1
     9    10     3    1
    10    11     4    1
    11    12     5    1
    12    13     6    1
    13    14     7    1
    14     6     7   ar
@<TRIPOS>SUBSTRUCTURE
     1 RES2        1 GROUP             0 ****  ****    0  
