@<TRIPOS>MOLECULE
01
    53    55     1     0     0
SMALL
NO_CHARGES
****
Generated from the CSD

@<TRIPOS>ATOM
     1 O1      11.5167   2.5524   1.5172   O.3       1 RES1   0.0000
     2 H1      12.2364   2.2170   1.7230   H         1 RES1   0.0000
     3 O2      12.9109   7.7695   5.1365   O.2       1 RES1   0.0000
     4 C1       9.3016   5.0518   4.7150   C.3       1 RES1   0.0000
     5 H2       8.8071   5.1880   3.8790   H         1 RES1   0.0000
     6 C3       9.8500   3.6219   4.7646   C.3       1 RES1   0.0000
     7 H6       9.2521   3.1052   5.3267   H         1 RES1   0.0000
     8 H7      10.7033   3.6599   5.2245   H         1 RES1   0.0000
     9 C4      10.0675   2.8098   3.4617   C.3       1 RES1   0.0000
    10 C5      11.1073   3.4727   2.5420   C.3       1 RES1   0.0000
    11 H8      11.8969   3.6609   3.0913   H         1 RES1   0.0000
    12 C6      10.6665   4.8055   1.9104   C.3       1 RES1   0.0000
    13 H9       9.7208   4.9256   2.1346   H         1 RES1   0.0000
    14 C7      11.4230   6.0211   2.4980   C.3       1 RES1   0.0000
    15 C8      11.5791   6.0111   4.0550   C.3       1 RES1   0.0000
    16 H10     11.9207   5.1219   4.2877   H         1 RES1   0.0000
    17 C9      10.3282   6.2254   4.9250   C.3       1 RES1   0.0000
    18 C10      9.7135   7.6002   4.4666   C.3       1 RES1   0.0000
    19 H11     10.3827   8.2872   4.6681   H         1 RES1   0.0000
    20 C11      9.4947   7.6343   2.9536   C.3       1 RES1   0.0000
    21 H12      8.8251   6.9744   2.7166   H         1 RES1   0.0000
    22 H13      9.1527   8.5065   2.7038   H         1 RES1   0.0000
    23 C12     10.7669   7.3549   2.1659   C.3       1 RES1   0.0000
    24 H14     11.4038   8.0659   2.3376   H         1 RES1   0.0000
    25 H15     10.5573   7.3709   1.2178   H         1 RES1   0.0000
    26 C13     10.6007   1.4279   3.9230   C.3       1 RES1   0.0000
    27 H16     11.4622   1.5371   4.3317   H         1 RES1   0.0000
    28 H17     10.6797   0.8461   3.1622   H         1 RES1   0.0000
    29 H18      9.9903   1.0444   4.5574   H         1 RES1   0.0000
    30 C14      8.7259   2.6386   2.7520   C.2       1 RES1   0.0000
    31 H19      8.0353   3.1502   3.1069   H         1 RES1   0.0000
    32 C15      8.3978   1.9306   1.7770   C.2       1 RES1   0.0000
    33 H20      9.0298   1.3879   1.3625   H         1 RES1   0.0000
    34 H21      7.5224   1.9456   1.4647   H         1 RES1   0.0000
    35 C16     10.7593   4.7885   0.3875   C.3       1 RES1   0.0000
    36 H22     11.6694   4.6352   0.1235   H         1 RES1   0.0000
    37 H23     10.4633   5.6336   0.0397   H         1 RES1   0.0000
    38 H24     10.2029   4.0875   0.0412   H         1 RES1   0.0000
    39 C17     12.8953   6.0291   2.0438   C.3       1 RES1   0.0000
    40 H25     13.2412   5.1239   2.0097   H         1 RES1   0.0000
    41 H26     12.9733   6.4237   1.1624   H         1 RES1   0.0000
    42 C18     13.6729   6.8532   3.0615   C.3       1 RES1   0.0000
    43 H27     14.4943   6.4036   3.3141   H         1 RES1   0.0000
    44 H28     13.8888   7.7284   2.7038   H         1 RES1   0.0000
    45 C19     12.7505   6.9694   4.2295   C.2       1 RES1   0.0000
    46 C20      8.4161   8.0158   5.2060   C.3       1 RES1   0.0000
    47 H29      7.6920   7.4510   4.9250   H         1 RES1   0.0000
    48 H30      8.2077   8.9300   4.9974   H         1 RES1   0.0000
    49 H31      8.5441   7.9257   6.1527   H         1 RES1   0.0000
    50 C21     10.7445   6.2644   6.3983   C.3       1 RES1   0.0000
    51 H32      9.9729   6.4287   6.9433   H         1 RES1   0.0000
    52 H33     11.3856   6.9664   6.5303   H         1 RES1   0.0000
    53 H34     11.1359   5.4233   6.6424   H         1 RES1   0.0000
@<TRIPOS>BOND
     1     1     2    1
     2     3    45    2
     3     4     5    1
     4     6     4    1
     5     7     6    1
     6     8     6    1
     7     9     6    1
     8    10     1    1
     9    11    10    1
    10    12    10    1
    11    13    12    1
    12    14    12    1
    13    15    14    1
    14    16    15    1
    15    17     4    1
    16    18    17    1
    17    19    18    1
    18    20    18    1
    19    21    20    1
    20    22    20    1
    21    23    14    1
    22    24    23    1
    23    25    23    1
    24    26     9    1
    25    27    26    1
    26    28    26    1
    27    29    26    1
    28    30     9    1
    29    31    30    1
    30    32    30    2
    31    33    32    1
    32    34    32    1
    33    35    12    1
    34    36    35    1
    35    37    35    1
    36    38    35    1
    37    39    14    1
    38    40    39    1
    39    41    39    1
    40    42    39    1
    41    43    42    1
    42    44    42    1
    43    45    15    1
    44    46    18    1
    45    47    46    1
    46    48    46    1
    47    49    46    1
    48    50    17    1
    49    51    50    1
    50    52    50    1
    51    53    50    1
    52     9    10    1
    53    15    17    1
    54    20    23    1
    55    42    45    1
@<TRIPOS>SUBSTRUCTURE
     1 RES1        1 GROUP             0 ****  ****    0  
