@<TRIPOS>MOLECULE
ILEZEG
    91    94     1     0     0
SMALL
NO_CHARGES
****
Generated from the CSD

@<TRIPOS>ATOM
     1 S1       4.6660   5.6706   6.6211   S.3       1 RES1   0.0000
     2 O1      11.5167   2.5524   1.5172   O.3       1 RES1   0.0000
     3 H1      12.2364   2.2170   1.7230   H         1 RES1   0.0000
     4 O2      12.9109   7.7695   5.1365   O.2       1 RES1   0.0000
     5 O3       8.3844   5.1860   5.8674   O.3       1 RES1   0.0000
     6 O4       6.6093   4.4670   4.7008   O.2       1 RES1   0.0000
     7 O5       5.6926   7.1426  11.4425   O.2       1 RES1   0.0000
     8 O6       3.9366   8.4023  12.1337   O.3       1 RES1   0.0000
     9 C1       9.3016   5.0518   4.7150   C.3       1 RES1   0.0000
    10 H2       8.8071   5.1880   3.8790   H         1 RES1   0.0000
    11 C2       6.3616   5.2270   6.9972   C.3       1 RES1   0.0000
    12 H3       6.8006   5.9600   7.4556   H         1 RES1   0.0000
    13 H4       6.3770   4.4510   7.5791   H         1 RES1   0.0000
    14 N1       4.0675   7.8165  10.0303   N.am      1 RES1   0.0000
    15 H5       3.2949   8.1940   9.9920   H         1 RES1   0.0000
    16 C3       9.8500   3.6219   4.7646   C.3       1 RES1   0.0000
    17 H6       9.2521   3.1052   5.3267   H         1 RES1   0.0000
    18 H7      10.7033   3.6599   5.2245   H         1 RES1   0.0000
    19 C4      10.0675   2.8098   3.4617   C.3       1 RES1   0.0000
    20 C5      11.1073   3.4727   2.5420   C.3       1 RES1   0.0000
    21 H8      11.8969   3.6609   3.0913   H         1 RES1   0.0000
    22 C6      10.6665   4.8055   1.9104   C.3       1 RES1   0.0000
    23 H9       9.7208   4.9256   2.1346   H         1 RES1   0.0000
    24 C7      11.4230   6.0211   2.4980   C.3       1 RES1   0.0000
    25 C8      11.5791   6.0111   4.0550   C.3       1 RES1   0.0000
    26 H10     11.9207   5.1219   4.2877   H         1 RES1   0.0000
    27 C9      10.3282   6.2254   4.9250   C.3       1 RES1   0.0000
    28 C10      9.7135   7.6002   4.4666   C.3       1 RES1   0.0000
    29 H11     10.3827   8.2872   4.6681   H         1 RES1   0.0000
    30 C11      9.4947   7.6343   2.9536   C.3       1 RES1   0.0000
    31 H12      8.8251   6.9744   2.7166   H         1 RES1   0.0000
    32 H13      9.1527   8.5065   2.7038   H         1 RES1   0.0000
    33 C12     10.7669   7.3549   2.1659   C.3       1 RES1   0.0000
    34 H14     11.4038   8.0659   2.3376   H         1 RES1   0.0000
    35 H15     10.5573   7.3709   1.2178   H         1 RES1   0.0000
    36 C13     10.6007   1.4279   3.9230   C.3       1 RES1   0.0000
    37 H16     11.4622   1.5371   4.3317   H         1 RES1   0.0000
    38 H17     10.6797   0.8461   3.1622   H         1 RES1   0.0000
    39 H18      9.9903   1.0444   4.5574   H         1 RES1   0.0000
    40 C14      8.7259   2.6386   2.7520   C.2       1 RES1   0.0000
    41 H19      8.0353   3.1502   3.1069   H         1 RES1   0.0000
    42 C15      8.3978   1.9306   1.7770   C.2       1 RES1   0.0000
    43 H20      9.0298   1.3879   1.3625   H         1 RES1   0.0000
    44 H21      7.5224   1.9456   1.4647   H         1 RES1   0.0000
    45 C16     10.7593   4.7885   0.3875   C.3       1 RES1   0.0000
    46 H22     11.6694   4.6352   0.1235   H         1 RES1   0.0000
    47 H23     10.4633   5.6336   0.0397   H         1 RES1   0.0000
    48 H24     10.2029   4.0875   0.0412   H         1 RES1   0.0000
    49 C17     12.8953   6.0291   2.0438   C.3       1 RES1   0.0000
    50 H25     13.2412   5.1239   2.0097   H         1 RES1   0.0000
    51 H26     12.9733   6.4237   1.1624   H         1 RES1   0.0000
    52 C18     13.6729   6.8532   3.0615   C.3       1 RES1   0.0000
    53 H27     14.4943   6.4036   3.3141   H         1 RES1   0.0000
    54 H28     13.8888   7.7284   2.7038   H         1 RES1   0.0000
    55 C19     12.7505   6.9694   4.2295   C.2       1 RES1   0.0000
    56 C20      8.4161   8.0158   5.2060   C.3       1 RES1   0.0000
    57 H29      7.6920   7.4510   4.9250   H         1 RES1   0.0000
    58 H30      8.2077   8.9300   4.9974   H         1 RES1   0.0000
    59 H31      8.5441   7.9257   6.1527   H         1 RES1   0.0000
    60 C21     10.7445   6.2644   6.3983   C.3       1 RES1   0.0000
    61 H32      9.9729   6.4287   6.9433   H         1 RES1   0.0000
    62 H33     11.3856   6.9664   6.5303   H         1 RES1   0.0000
    63 H34     11.1359   5.4233   6.6424   H         1 RES1   0.0000
    64 C22      7.0922   4.9156   5.7028   C.2       1 RES1   0.0000
    65 C23      3.9779   6.0462   8.2661   C.3       1 RES1   0.0000
    66 C24      4.1670   4.8666   9.2397   C.3       1 RES1   0.0000
    67 H35      3.7604   4.0795   8.8707   H         1 RES1   0.0000
    68 H36      3.7552   5.0768  10.0800   H         1 RES1   0.0000
    69 H37      5.1053   4.7093   9.3731   H         1 RES1   0.0000
    70 C25      2.4983   6.2725   8.0092   C.3       1 RES1   0.0000
    71 H38      2.3819   7.0705   7.4883   H         1 RES1   0.0000
    72 H39      2.0387   6.3686   8.8480   H         1 RES1   0.0000
    73 H40      2.1380   5.5224   7.5309   H         1 RES1   0.0000
    74 C26      4.6447   7.3119   8.8054   C.3       1 RES1   0.0000
    75 H41      5.5846   7.1266   8.9601   H         1 RES1   0.0000
    76 H42      4.5901   8.0048   8.1284   H         1 RES1   0.0000
    77 C27      4.6690   7.7284  11.2253   C.2       1 RES1   0.0000
    78 C28      4.4669   8.5265  13.4991   C.3       1 RES1   0.0000
    79 H43      4.4877   9.4618  13.7546   H         1 RES1   0.0000
    80 H44      5.3758   8.1870  13.5260   H         1 RES1   0.0000
    81 C29      3.6255   7.7665  14.4585   C.ar      1 RES1   0.0000
    82 C30      2.8514   8.4514  15.3740   C.ar      1 RES1   0.0000
    83 H45      2.8179   9.3806  15.3584   H         1 RES1   0.0000
    84 C31      2.1099   7.7304  16.3320   C.ar      1 RES1   0.0000
    85 H46      1.5904   8.1800  16.9594   H         1 RES1   0.0000
    86 C32      2.1618   6.3776  16.3306   C.ar      1 RES1   0.0000
    87 H47      1.6723   5.8970  16.9594   H         1 RES1   0.0000
    88 C33      2.9231   5.7127  15.4194   C.ar      1 RES1   0.0000
    89 H48      2.9557   4.7834  15.4293   H         1 RES1   0.0000
    90 C34      3.6417   6.4156  14.4869   C.ar      1 RES1   0.0000
    91 H49      4.1503   5.9520  13.8610   H         1 RES1   0.0000
@<TRIPOS>BOND
     1     1    11    1
     2     2     3    1
     3     4    55    2
     4     5     9    1
     5     6    64    2
     6     7    77    2
     7     8    77    1
     8     9    10    1
     9    11    12    1
    10    13    11    1
    11    14    15    1
    12    16     9    1
    13    17    16    1
    14    18    16    1
    15    19    16    1
    16    20     2    1
    17    21    20    1
    18    22    20    1
    19    23    22    1
    20    24    22    1
    21    25    24    1
    22    26    25    1
    23    27     9    1
    24    28    27    1
    25    29    28    1
    26    30    28    1
    27    31    30    1
    28    32    30    1
    29    33    24    1
    30    34    33    1
    31    35    33    1
    32    36    19    1
    33    37    36    1
    34    38    36    1
    35    39    36    1
    36    40    19    1
    37    41    40    1
    38    42    40    2
    39    43    42    1
    40    44    42    1
    41    45    22    1
    42    46    45    1
    43    47    45    1
    44    48    45    1
    45    49    24    1
    46    50    49    1
    47    51    49    1
    48    52    49    1
    49    53    52    1
    50    54    52    1
    51    55    25    1
    52    56    28    1
    53    57    56    1
    54    58    56    1
    55    59    56    1
    56    60    27    1
    57    61    60    1
    58    62    60    1
    59    63    60    1
    60    64     5    1
    61    65     1    1
    62    66    65    1
    63    67    66    1
    64    68    66    1
    65    69    66    1
    66    70    65    1
    67    71    70    1
    68    72    70    1
    69    73    70    1
    70    74    14    1
    71    75    74    1
    72    76    74    1
    73    77    14   am
    74    78     8    1
    75    79    78    1
    76    80    78    1
    77    81    78    1
    78    82    81   ar
    79    83    82    1
    80    84    82   ar
    81    85    84    1
    82    86    84   ar
    83    87    86    1
    84    88    86   ar
    85    89    88    1
    86    90    81   ar
    87    91    90    1
    88    11    64    1
    89    19    20    1
    90    25    27    1
    91    30    33    1
    92    52    55    1
    93    65    74    1
    94    88    90   ar
@<TRIPOS>SUBSTRUCTURE
     1 RES1        1 GROUP             0 ****  ****    0  
@<TRIPOS>CRYSIN
   11.7112   10.0135   14.6411   90.0000  104.2100   90.0000     4     1
