@<TRIPOS>MOLECULE
02
    14    14     1     0     0
SMALL
NO_CHARGES
****
Generated from the CSD

@<TRIPOS>ATOM
     1 C28      4.4669   8.5265  13.4991   C.3       1 RES2   0.0000
     2 H43      4.4877   9.4618  13.7546   H         1 RES2   0.0000
     3 H44      5.3758   8.1870  13.5260   H         1 RES2   0.0000
     4 C29      3.6255   7.7665  14.4585   C.ar      1 RES2   0.0000
     5 C30      2.8514   8.4514  15.3740   C.ar      1 RES2   0.0000
     6 H45      2.8179   9.3806  15.3584   H         1 RES2   0.0000
     7 C31      2.1099   7.7304  16.3320   C.ar      1 RES2   0.0000
     8 H46      1.5904   8.1800  16.9594   H         1 RES2   0.0000
     9 C32      2.1618   6.3776  16.3306   C.ar      1 RES2   0.0000
    10 H47      1.6723   5.8970  16.9594   H         1 RES2   0.0000
    11 C33      2.9231   5.7127  15.4194   C.ar      1 RES2   0.0000
    12 H48      2.9557   4.7834  15.4293   H         1 RES2   0.0000
    13 C34      3.6417   6.4156  14.4869   C.ar      1 RES2   0.0000
    14 H49      4.1503   5.9520  13.8610   H         1 RES2   0.0000
@<TRIPOS>BOND
     1     2     1    1
     2     3     1    1
     3     4     1    1
     4     5     4   ar
     5     6     5    1
     6     7     5   ar
     7     8     7    1
     8     9     7   ar
     9    10     9    1
    10    11     9   ar
    11    12    11    1
    12    13     4   ar
    13    14    13    1
    14    11    13   ar
@<TRIPOS>SUBSTRUCTURE
     1 RES2        1 GROUP             0 ****  ****    0  
