@<TRIPOS>MOLECULE
01
    23    25     1     0     0
SMALL
NO_CHARGES
****
Generated from the CSD

@<TRIPOS>ATOM
     1 S1      -3.0482  -0.0172   2.2829   S.3       1 RES1   0.0000
     2 N2      -5.3887  -0.5233   1.3163   N.2       1 RES1   0.0000
     3 C3      -3.3150  -3.1855   2.8239   C.ar      1 RES1   0.0000
     4 C4      -4.3466  -2.5434   2.1348   C.ar      1 RES1   0.0000
     5 C6      -3.3465  -4.5634   3.0245   C.ar      1 RES1   0.0000
     6 H3      -2.6638  -4.9804   3.4995   H         1 RES1   0.0000
     7 C7      -4.3942  -5.3134   2.5161   C.ar      1 RES1   0.0000
     8 H4      -4.4141  -6.2337   2.6469   H         1 RES1   0.0000
     9 C9      -4.3678  -1.0931   1.8898   C.2       1 RES1   0.0000
    10 C12     -5.4053  -4.6982   1.8163   C.ar      1 RES1   0.0000
    11 H9      -6.1045  -5.2024   1.4682   H         1 RES1   0.0000
    12 C18     -5.3816  -3.3372   1.6340   C.ar      1 RES1   0.0000
    13 H19     -6.0746  -2.9328   1.1646   H         1 RES1   0.0000
    14 C21     -3.9340   1.2848   1.6049   C.ar      1 RES1   0.0000
    15 C22     -5.1742   0.8321   1.1363   C.ar      1 RES1   0.0000
    16 C24     -4.4575   3.4854   0.8622   C.ar      1 RES1   0.0000
    17 H21     -4.2332   4.3819   0.7610   H         1 RES1   0.0000
    18 C25     -3.5599   2.6318   1.4533   C.ar      1 RES1   0.0000
    19 H22     -2.7306   2.9352   1.7450   H         1 RES1   0.0000
    20 C26     -6.0606   1.7288   0.5437   C.ar      1 RES1   0.0000
    21 H23     -6.8920   1.4418   0.2409   H         1 RES1   0.0000
    22 C27     -5.6865   3.0412   0.4150   C.ar      1 RES1   0.0000
    23 H24     -6.2722   3.6445   0.0191   H         1 RES1   0.0000
@<TRIPOS>BOND
     1     1     9    1
     2     2     9    2
     3     3     4   ar
     4     4     9    1
     5     5     3   ar
     6     6     5    1
     7     7     5   ar
     8     8     7    1
     9    10     7   ar
    10    11    10    1
    11    12     4   ar
    12    13    12    1
    13    14     1    1
    14    15     2    1
    15    16    17    1
    16    18    14   ar
    17    19    18    1
    18    20    15   ar
    19    21    20    1
    20    22    16   ar
    21    23    22    1
    22    10    12   ar
    23    14    15   ar
    24    16    18   ar
    25    20    22   ar
@<TRIPOS>SUBSTRUCTURE
     1 RES1        1 GROUP             0 ****  ****    0  
