@<TRIPOS>MOLECULE
02
    16    16     1     0     0
SMALL
NO_CHARGES
****
Generated from the CSD

@<TRIPOS>ATOM
     1 O3       5.9466   8.7471   7.9358   O.2       1 RES2   0.0000
     2 C1       4.7629   4.8393   5.5070   C.ar      1 RES2   0.0000
     3 H1       4.9590   4.2368   4.8257   H         1 RES2   0.0000
     4 C2       5.6398   5.8703   5.7964   C.ar      1 RES2   0.0000
     5 H2       6.4374   5.9373   5.3237   H         1 RES2   0.0000
     6 C5       5.3522   6.8036   6.7765   C.ar      1 RES2   0.0000
     7 C10      4.1665   6.6591   7.4825   C.ar      1 RES2   0.0000
     8 H7       3.9551   7.2758   8.1458   H         1 RES2   0.0000
     9 C11      3.2969   5.6262   7.2222   C.ar      1 RES2   0.0000
    10 H8       2.5094   5.5461   7.7109   H         1 RES2   0.0000
    11 C15      7.5953   8.0233   6.4519   C.3       1 RES2   0.0000
    12 H14      7.7029   7.2938   5.8370   H         1 RES2   0.0000
    13 H15      7.6479   8.8544   5.9753   H         1 RES2   0.0000
    14 H16      8.2912   7.9888   7.1131   H         1 RES2   0.0000
    15 C17      6.2630   7.9168   7.1242   C.2       1 RES2   0.0000
    16 C19      3.5945   4.7076   6.2344   C.ar      1 RES2   0.0000
@<TRIPOS>BOND
     1     1    15    2
     2     2     3    1
     3     4     2   ar
     4     5     4    1
     5     6     4   ar
     6     7     6   ar
     7     8     7    1
     8     9     7   ar
     9    10     9    1
    10    11    12    1
    11    13    11    1
    12    14    11    1
    13    15     6    1
    14     2    16   ar
    15     9    16   ar
    16    11    15    1
@<TRIPOS>SUBSTRUCTURE
     1 RES2        1 GROUP             0 ****  ****    0  
