@<TRIPOS>MOLECULE
IMUGAB
    59    63     1     0     0
SMALL
NO_CHARGES
****
Generated from the CSD

@<TRIPOS>ATOM
     1 S1      -3.0482  -0.0172   2.2829   S.3       1 RES1   0.0000
     2 O1      -2.3383  -2.3744   3.3037   O.3       1 RES1   0.0000
     3 O2       2.6749   3.7318   6.0664   O.3       1 RES1   0.0000
     4 N1       0.0953   0.4935   4.9388   N.pl3     1 RES1   0.0000
     5 N2      -5.3887  -0.5233   1.3163   N.2       1 RES1   0.0000
     6 O3       5.9466   8.7471   7.9358   O.2       1 RES1   0.0000
     7 N3      -0.4531   1.5639   4.3538   N.2       1 RES1   0.0000
     8 C1       4.7629   4.8393   5.5070   C.ar      1 RES1   0.0000
     9 H1       4.9590   4.2368   4.8257   H         1 RES1   0.0000
    10 C2       5.6398   5.8703   5.7964   C.ar      1 RES1   0.0000
    11 H2       6.4374   5.9373   5.3237   H         1 RES1   0.0000
    12 C3      -3.3150  -3.1855   2.8239   C.ar      1 RES1   0.0000
    13 C4      -4.3466  -2.5434   2.1348   C.ar      1 RES1   0.0000
    14 C5       5.3522   6.8036   6.7765   C.ar      1 RES1   0.0000
    15 C6      -3.3465  -4.5634   3.0245   C.ar      1 RES1   0.0000
    16 H3      -2.6638  -4.9804   3.4995   H         1 RES1   0.0000
    17 C7      -4.3942  -5.3134   2.5161   C.ar      1 RES1   0.0000
    18 H4      -4.4141  -6.2337   2.6469   H         1 RES1   0.0000
    19 C8      -1.1512  -2.9242   3.8714   C.3       1 RES1   0.0000
    20 H5      -0.7753  -3.6004   3.2861   H         1 RES1   0.0000
    21 H6      -1.3405  -3.3281   4.7325   H         1 RES1   0.0000
    22 N4       0.4773   2.4873   4.3018   N.2       1 RES1   0.0000
    23 C9      -4.3678  -1.0931   1.8898   C.2       1 RES1   0.0000
    24 C10      4.1665   6.6591   7.4825   C.ar      1 RES1   0.0000
    25 H7       3.9551   7.2758   8.1458   H         1 RES1   0.0000
    26 C11      3.2969   5.6262   7.2222   C.ar      1 RES1   0.0000
    27 H8       2.5094   5.5461   7.7109   H         1 RES1   0.0000
    28 C12     -5.4053  -4.6982   1.8163   C.ar      1 RES1   0.0000
    29 H9      -6.1045  -5.2024   1.4682   H         1 RES1   0.0000
    30 C13      2.8393   2.8303   4.9557   C.3       1 RES1   0.0000
    31 H10      3.6114   2.2599   5.0982   H         1 RES1   0.0000
    32 H11      2.9736   3.3297   4.1351   H         1 RES1   0.0000
    33 C14     -0.1953  -1.7674   4.0276   C.3       1 RES1   0.0000
    34 H12     -0.0887  -1.3258   3.1699   H         1 RES1   0.0000
    35 H13      0.6730  -2.1071   4.2958   H         1 RES1   0.0000
    36 C15      7.5953   8.0233   6.4519   C.3       1 RES1   0.0000
    37 H14      7.7029   7.2938   5.8370   H         1 RES1   0.0000
    38 H15      7.6479   8.8544   5.9753   H         1 RES1   0.0000
    39 H16      8.2912   7.9888   7.1131   H         1 RES1   0.0000
    40 C16     -0.6720  -0.7539   5.0537   C.3       1 RES1   0.0000
    41 H17     -1.6138  -0.5691   4.9140   H         1 RES1   0.0000
    42 H18     -0.5649  -1.1195   5.9451   H         1 RES1   0.0000
    43 C17      6.2630   7.9168   7.1242   C.2       1 RES1   0.0000
    44 C18     -5.3816  -3.3372   1.6340   C.ar      1 RES1   0.0000
    45 H19     -6.0746  -2.9328   1.1646   H         1 RES1   0.0000
    46 C19      3.5945   4.7076   6.2344   C.ar      1 RES1   0.0000
    47 C20      1.6115   2.0135   4.8623   C.2       1 RES1   0.0000
    48 C21     -3.9340   1.2848   1.6049   C.ar      1 RES1   0.0000
    49 C22     -5.1742   0.8321   1.1363   C.ar      1 RES1   0.0000
    50 C23      1.3694   0.7353   5.2834   C.2       1 RES1   0.0000
    51 H20      1.9586   0.1593   5.7143   H         1 RES1   0.0000
    52 C24     -4.4575   3.4854   0.8622   C.ar      1 RES1   0.0000
    53 H21     -4.2332   4.3819   0.7610   H         1 RES1   0.0000
    54 C25     -3.5599   2.6318   1.4533   C.ar      1 RES1   0.0000
    55 H22     -2.7306   2.9352   1.7450   H         1 RES1   0.0000
    56 C26     -6.0606   1.7288   0.5437   C.ar      1 RES1   0.0000
    57 H23     -6.8920   1.4418   0.2409   H         1 RES1   0.0000
    58 C27     -5.6865   3.0412   0.4150   C.ar      1 RES1   0.0000
    59 H24     -6.2722   3.6445   0.0191   H         1 RES1   0.0000
@<TRIPOS>BOND
     1     1    23    1
     2     2    12    1
     3     3    30    1
     4     4     7    1
     5     5    23    2
     6     6    43    2
     7     7    22    2
     8     8     9    1
     9    10     8   ar
    10    11    10    1
    11    12    13   ar
    12    13    23    1
    13    14    10   ar
    14    15    12   ar
    15    16    15    1
    16    17    15   ar
    17    18    17    1
    18    19     2    1
    19    20    19    1
    20    21    19    1
    21    22    47    1
    22    24    14   ar
    23    25    24    1
    24    26    24   ar
    25    27    26    1
    26    28    17   ar
    27    29    28    1
    28    30    31    1
    29    32    30    1
    30    33    19    1
    31    34    33    1
    32    35    33    1
    33    36    37    1
    34    38    36    1
    35    39    36    1
    36    40     4    1
    37    41    40    1
    38    42    40    1
    39    43    14    1
    40    44    13   ar
    41    45    44    1
    42    46     3    1
    43    47    30    1
    44    48     1    1
    45    49     5    1
    46    50     4    1
    47    51    50    1
    48    52    53    1
    49    54    48   ar
    50    55    54    1
    51    56    49   ar
    52    57    56    1
    53    58    52   ar
    54    59    58    1
    55     8    46   ar
    56    26    46   ar
    57    28    44   ar
    58    33    40    1
    59    36    43    1
    60    47    50    2
    61    48    49   ar
    62    52    54   ar
    63    56    58   ar
@<TRIPOS>SUBSTRUCTURE
     1 RES1        1 GROUP             0 ****  ****    0  
@<TRIPOS>CRYSIN
    7.2084   11.1228   15.4549   94.4650   94.9690  104.6360     2     1
