@<TRIPOS>MOLECULE
01
    24    25     1     0     0
SMALL
NO_CHARGES
****
Generated from the CSD

@<TRIPOS>ATOM
     1 Cl1      2.0528   0.1833  14.9082   Cl        1 RES1   0.0000
     2 O5       0.6475   2.7670  14.5305   O.2       1 RES1   0.0000
     3 O6      -0.3924   4.2747  11.9784   O.3       1 RES1   0.0000
     4 N2       1.6188   3.2990  12.5254   N.am      1 RES1   0.0000
     5 N3       2.3708   3.0083  11.4434   N.2       1 RES1   0.0000
     6 C13      2.9840   0.9370  12.5013   C.2       1 RES1   0.0000
     7 C14      2.1825   1.2426  13.5551   C.2       1 RES1   0.0000
     8 C15      1.4158   2.4553  13.6195   C.2       1 RES1   0.0000
     9 C16      3.0298   1.8873  11.4233   C.2       1 RES1   0.0000
    10 C17      0.8917   4.5874  12.4932   C.3       1 RES1   0.0000
    11 C18     -1.2457   5.4354  11.9583   C.3       1 RES1   0.0000
    12 C19     -0.6486   6.5680  11.1960   C.3       1 RES1   0.0000
    13 C20      0.7301   6.9193  11.7431   C.3       1 RES1   0.0000
    14 C21      1.6075   5.6644  11.7431   C.3       1 RES1   0.0000
    15 H17      3.5664   1.6838  10.6510   H         1 RES1   0.0000
    16 H18      0.7833   4.8885  13.3942   H         1 RES1   0.0000
    17 H19     -2.0969   5.1897  11.5802   H         1 RES1   0.0000
    18 H20     -1.4040   5.7216  12.8613   H         1 RES1   0.0000
    19 H21     -0.5683   6.3038  10.2629   H         1 RES1   0.0000
    20 H22     -1.2292   7.3280  11.2202   H         1 RES1   0.0000
    21 H23      1.1322   7.6151  11.2061   H         1 RES1   0.0000
    22 H24      0.6445   7.2496  12.6320   H         1 RES1   0.0000
    23 H25      2.4704   5.8423  12.1312   H         1 RES1   0.0000
    24 H26      1.7767   5.3755  10.8260   H         1 RES1   0.0000
@<TRIPOS>BOND
     1     1     7    1
     2     2     8    2
     3     3    10    1
     4     4     5    1
     5     5     9    2
     6     7     6    2
     7     8     4   am
     8     9     6    1
     9    10     4    1
    10    11     3    1
    11    12    11    1
    12    13    12    1
    13    14    10    1
    14    15     9    1
    15    16    10    1
    16    17    11    1
    17    18    11    1
    18    19    12    1
    19    20    12    1
    20    21    13    1
    21    22    13    1
    22    23    14    1
    23    24    14    1
    24     7     8    1
    25    13    14    1
@<TRIPOS>SUBSTRUCTURE
     1 RES1        1 GROUP             0 ****  ****    0  
