@<TRIPOS>MOLECULE
IMUROX
    57    59     1     0     0
SMALL
NO_CHARGES
****
Generated from the CSD

@<TRIPOS>ATOM
     1 Cl1      2.0528   0.1833  14.9082   Cl        1 RES1   0.0000
     2 O1       8.4139  -9.4724  13.6014   O.3       1 RES1   0.0000
     3 O2       9.1880  -7.9163  11.5138   O.3       1 RES1   0.0000
     4 O3       6.1925  -2.0167  10.7375   O.2       1 RES1   0.0000
     5 O4       3.6912  -0.2061  12.5157   O.3       1 RES1   0.0000
     6 O5       0.6475   2.7670  14.5305   O.2       1 RES1   0.0000
     7 O6      -0.3924   4.2747  11.9784   O.3       1 RES1   0.0000
     8 N1       5.3683  -2.2941  12.8371   N.am      1 RES1   0.0000
     9 N2       1.6188   3.2990  12.5254   N.am      1 RES1   0.0000
    10 N3       2.3708   3.0083  11.4434   N.2       1 RES1   0.0000
    11 C1       6.2825  -5.9947  12.6943   C.ar      1 RES1   0.0000
    12 C2       5.8755  -6.8040  13.7623   C.ar      1 RES1   0.0000
    13 C3       6.5503  -7.9744  14.0860   C.ar      1 RES1   0.0000
    14 C4       7.6689  -8.3478  13.3540   C.ar      1 RES1   0.0000
    15 C5       8.0973  -7.5455  12.2861   C.ar      1 RES1   0.0000
    16 C6       7.4034  -6.3954  11.9663   C.ar      1 RES1   0.0000
    17 C7       8.2233 -10.0800  14.8925   C.3       1 RES1   0.0000
    18 C8      10.4422  -7.6714  12.1875   C.3       1 RES1   0.0000
    19 C9       5.5435  -4.7195  12.3665   C.3       1 RES1   0.0000
    20 C10      6.1516  -3.4989  13.0724   C.3       1 RES1   0.0000
    21 C11      5.4561  -1.6574  11.6606   C.2       1 RES1   0.0000
    22 C12      4.6109  -0.4245  11.4293   C.3       1 RES1   0.0000
    23 C13      2.9840   0.9370  12.5013   C.2       1 RES1   0.0000
    24 C14      2.1825   1.2426  13.5551   C.2       1 RES1   0.0000
    25 C15      1.4158   2.4553  13.6195   C.2       1 RES1   0.0000
    26 C16      3.0298   1.8873  11.4233   C.2       1 RES1   0.0000
    27 C17      0.8917   4.5874  12.4932   C.3       1 RES1   0.0000
    28 C18     -1.2457   5.4354  11.9583   C.3       1 RES1   0.0000
    29 C19     -0.6486   6.5680  11.1960   C.3       1 RES1   0.0000
    30 C20      0.7301   6.9193  11.7431   C.3       1 RES1   0.0000
    31 C21      1.6075   5.6644  11.7431   C.3       1 RES1   0.0000
    32 H1       4.7927  -1.9498  13.5169   H         1 RES1   0.0000
    33 H2       5.1146  -6.5371  14.2771   H         1 RES1   0.0000
    34 H3       6.2416  -8.5186  14.8060   H         1 RES1   0.0000
    35 H4       7.6970  -5.8520  11.2242   H         1 RES1   0.0000
    36 H5       8.9128 -10.7247  15.0474   H         1 RES1   0.0000
    37 H6       8.2718  -9.4134  15.5763   H         1 RES1   0.0000
    38 H7       7.3810 -10.5063  14.9287   H         1 RES1   0.0000
    39 H8      10.5130  -8.2245  12.9678   H         1 RES1   0.0000
    40 H9      11.1719  -7.8511  11.6144   H         1 RES1   0.0000
    41 H10     10.4888  -6.7547  12.4731   H         1 RES1   0.0000
    42 H11      5.5681  -4.5741  11.4193   H         1 RES1   0.0000
    43 H12      4.6285  -4.7987  12.6320   H         1 RES1   0.0000
    44 H13      7.0427  -3.3615  12.7386   H         1 RES1   0.0000
    45 H14      6.2033  -3.6706  14.0056   H         1 RES1   0.0000
    46 H15      4.1151  -0.5284  10.6148   H         1 RES1   0.0000
    47 H16      5.1831   0.3355  11.3348   H         1 RES1   0.0000
    48 H17      3.5664   1.6838  10.6510   H         1 RES1   0.0000
    49 H18      0.7833   4.8885  13.3942   H         1 RES1   0.0000
    50 H19     -2.0969   5.1897  11.5802   H         1 RES1   0.0000
    51 H20     -1.4040   5.7216  12.8613   H         1 RES1   0.0000
    52 H21     -0.5683   6.3038  10.2629   H         1 RES1   0.0000
    53 H22     -1.2292   7.3280  11.2202   H         1 RES1   0.0000
    54 H23      1.1322   7.6151  11.2061   H         1 RES1   0.0000
    55 H24      0.6445   7.2496  12.6320   H         1 RES1   0.0000
    56 H25      2.4704   5.8423  12.1312   H         1 RES1   0.0000
    57 H26      1.7767   5.3755  10.8260   H         1 RES1   0.0000
@<TRIPOS>BOND
     1     1    24    1
     2     2    14    1
     3     3    15    1
     4     4    21    2
     5     5    22    1
     6     6    25    2
     7     7    27    1
     8     8    20    1
     9     9    10    1
    10    10    26    2
    11    11    12   ar
    12    12    13   ar
    13    13    14   ar
    14    14    15   ar
    15    15    16   ar
    16    16    11   ar
    17    17     2    1
    18    18     3    1
    19    19    11    1
    20    20    19    1
    21    21     8   am
    22    22    21    1
    23    23     5    1
    24    24    23    2
    25    25     9   am
    26    26    23    1
    27    27     9    1
    28    28     7    1
    29    29    28    1
    30    30    29    1
    31    31    27    1
    32    32     8    1
    33    33    12    1
    34    34    13    1
    35    35    16    1
    36    36    17    1
    37    37    17    1
    38    38    17    1
    39    39    18    1
    40    40    18    1
    41    41    18    1
    42    42    19    1
    43    43    19    1
    44    44    20    1
    45    45    20    1
    46    46    22    1
    47    47    22    1
    48    48    26    1
    49    49    27    1
    50    50    28    1
    51    51    28    1
    52    52    29    1
    53    53    29    1
    54    54    30    1
    55    55    30    1
    56    56    31    1
    57    57    31    1
    58    24    25    1
    59    30    31    1
@<TRIPOS>SUBSTRUCTURE
     1 RES1        1 GROUP             0 ****  ****    0  
@<TRIPOS>CRYSIN
   11.8890    8.8066   20.1140   90.0000   90.9160   90.0000   231     1
