@<TRIPOS>MOLECULE
02
    19    19     1     0     0
SMALL
NO_CHARGES
****
Generated from the CSD

@<TRIPOS>ATOM
     1 O1       8.4139  -9.4724  13.6014   O.3       1 RES2   0.0000
     2 O2       9.1880  -7.9163  11.5138   O.3       1 RES2   0.0000
     3 C1       6.2825  -5.9947  12.6943   C.ar      1 RES2   0.0000
     4 C2       5.8755  -6.8040  13.7623   C.ar      1 RES2   0.0000
     5 C3       6.5503  -7.9744  14.0860   C.ar      1 RES2   0.0000
     6 C4       7.6689  -8.3478  13.3540   C.ar      1 RES2   0.0000
     7 C5       8.0973  -7.5455  12.2861   C.ar      1 RES2   0.0000
     8 C6       7.4034  -6.3954  11.9663   C.ar      1 RES2   0.0000
     9 C7       8.2233 -10.0800  14.8925   C.3       1 RES2   0.0000
    10 C8      10.4422  -7.6714  12.1875   C.3       1 RES2   0.0000
    11 H2       5.1146  -6.5371  14.2771   H         1 RES2   0.0000
    12 H3       6.2416  -8.5186  14.8060   H         1 RES2   0.0000
    13 H4       7.6970  -5.8520  11.2242   H         1 RES2   0.0000
    14 H5       8.9128 -10.7247  15.0474   H         1 RES2   0.0000
    15 H6       8.2718  -9.4134  15.5763   H         1 RES2   0.0000
    16 H7       7.3810 -10.5063  14.9287   H         1 RES2   0.0000
    17 H8      10.5130  -8.2245  12.9678   H         1 RES2   0.0000
    18 H9      11.1719  -7.8511  11.6144   H         1 RES2   0.0000
    19 H10     10.4888  -6.7547  12.4731   H         1 RES2   0.0000
@<TRIPOS>BOND
     1     1     6    1
     2     2     7    1
     3     3     4   ar
     4     4     5   ar
     5     5     6   ar
     6     6     7   ar
     7     7     8   ar
     8     8     3   ar
     9     9     1    1
    10    10     2    1
    11    11     4    1
    12    12     5    1
    13    13     8    1
    14    14     9    1
    15    15     9    1
    16    16     9    1
    17    17    10    1
    18    18    10    1
    19    19    10    1
@<TRIPOS>SUBSTRUCTURE
     1 RES2        1 GROUP             0 ****  ****    0  
