@<TRIPOS>MOLECULE
02
    10    10     1     0     0
SMALL
NO_CHARGES
****
Generated from the CSD

@<TRIPOS>ATOM
     1 C20     -0.2093   9.0459  10.9992   C.3       1 RES2   0.0000
     2 H22     -0.9551   9.7104  11.0400   H         1 RES2   0.0000
     3 S1       0.5954   9.1798   9.3369   S.3       1 RES2   0.0000
     4 S2       0.2286   7.2303   8.7374   S.3       1 RES2   0.0000
     5 C21     -1.2175   7.0615   9.8089   C.3       1 RES2   0.0000
     6 H23     -1.9882   7.5572   9.4338   H         1 RES2   0.0000
     7 H24     -1.4689   6.1095   9.9072   H         1 RES2   0.0000
     8 C22     -0.8095   7.6446  11.1426   C.3       1 RES2   0.0000
     9 H25     -0.1443   7.0477  11.5689   H         1 RES2   0.0000
    10 H26     -1.6017   7.6889  11.7347   H         1 RES2   0.0000
@<TRIPOS>BOND
     1     2     1    1
     2     3     1    1
     3     4     3    1
     4     5     4    1
     5     6     5    1
     6     7     5    1
     7     8     1    1
     8     9     8    1
     9    10     8    1
    10     5     8    1
@<TRIPOS>SUBSTRUCTURE
     1 RES2        1 GROUP             0 ****  ****    0  
