@<TRIPOS>MOLECULE
01
    24    26     1     0     0
SMALL
NO_CHARGES
****
Generated from the CSD

@<TRIPOS>ATOM
     1 N1       4.6418   4.8690  14.7853   N.ar      1 RES1   0.0000
     2 C1       3.6641   5.6260  14.2856   C.ar      1 RES1   0.0000
     3 C2       3.3440   6.8974  14.7399   C.ar      1 RES1   0.0000
     4 H1       2.6168   7.3860  14.3738   H         1 RES1   0.0000
     5 C3       4.1341   7.4217  15.7546   C.ar      1 RES1   0.0000
     6 C4       5.1845   6.6659  16.2757   C.ar      1 RES1   0.0000
     7 H2       5.7529   7.0090  16.9551   H         1 RES1   0.0000
     8 C5       5.3623   5.3920  15.7591   C.ar      1 RES1   0.0000
     9 N2       2.9395   5.0074  13.2432   N.pl3     1 RES1   0.0000
    10 N3       1.9024   5.6541  12.6352   N.2       1 RES1   0.0000
    11 C6       1.4416   4.7636  11.7691   C.2       1 RES1   0.0000
    12 H3       0.7100   4.9238  11.1846   H         1 RES1   0.0000
    13 C7       2.1560   3.5559  11.8133   C.2       1 RES1   0.0000
    14 H4       2.0040   2.7758  11.2934   H         1 RES1   0.0000
    15 C8       3.1123   3.7445  12.7606   C.2       1 RES1   0.0000
    16 H5       3.7722   3.1178  13.0329   H         1 RES1   0.0000
    17 N4       6.3587   4.5334  16.2819   N.pl3     1 RES1   0.0000
    18 N5       7.1463   4.9461  17.3210   N.2       1 RES1   0.0000
    19 C9       7.9675   3.9234  17.5124   C.2       1 RES1   0.0000
    20 H6       8.6475   3.9076  18.1752   H         1 RES1   0.0000
    21 C10      7.7165   2.8614  16.6204   C.2       1 RES1   0.0000
    22 H7       8.1748   2.0309  16.5673   H         1 RES1   0.0000
    23 C11      6.6733   3.2840  15.8509   C.2       1 RES1   0.0000
    24 H8       6.2497   2.7994  15.1514   H         1 RES1   0.0000
@<TRIPOS>BOND
     1     1     2   ar
     2     2     3   ar
     3     3     4    1
     4     5     3   ar
     5     6     5   ar
     6     7     6    1
     7     8     1   ar
     8     9     2    1
     9    10     9    1
    10    11    10    2
    11    12    11    1
    12    13    11    1
    13    14    13    1
    14    15     9    1
    15    16    15    1
    16    17     8    1
    17    18    17    1
    18    19    18    2
    19    20    19    1
    20    21    19    1
    21    22    21    1
    22    23    17    1
    23    24    23    1
    24     6     8   ar
    25    13    15    2
    26    21    23    2
@<TRIPOS>SUBSTRUCTURE
     1 RES1        1 GROUP             0 ****  ****    0  
