@<TRIPOS>MOLECULE
ITIDAT
    59    62     1     0     0
SMALL
NO_CHARGES
****
Generated from the CSD

@<TRIPOS>ATOM
     1 N1       4.6418   4.8690  14.7853   N.ar      1 RES1   0.0000
     2 C1       3.6641   5.6260  14.2856   C.ar      1 RES1   0.0000
     3 C2       3.3440   6.8974  14.7399   C.ar      1 RES1   0.0000
     4 H1       2.6168   7.3860  14.3738   H         1 RES1   0.0000
     5 C3       4.1341   7.4217  15.7546   C.ar      1 RES1   0.0000
     6 C4       5.1845   6.6659  16.2757   C.ar      1 RES1   0.0000
     7 H2       5.7529   7.0090  16.9551   H         1 RES1   0.0000
     8 C5       5.3623   5.3920  15.7591   C.ar      1 RES1   0.0000
     9 N2       2.9395   5.0074  13.2432   N.pl3     1 RES1   0.0000
    10 N3       1.9024   5.6541  12.6352   N.2       1 RES1   0.0000
    11 C6       1.4416   4.7636  11.7691   C.2       1 RES1   0.0000
    12 H3       0.7100   4.9238  11.1846   H         1 RES1   0.0000
    13 C7       2.1560   3.5559  11.8133   C.2       1 RES1   0.0000
    14 H4       2.0040   2.7758  11.2934   H         1 RES1   0.0000
    15 C8       3.1123   3.7445  12.7606   C.2       1 RES1   0.0000
    16 H5       3.7722   3.1178  13.0329   H         1 RES1   0.0000
    17 N4       6.3587   4.5334  16.2819   N.pl3     1 RES1   0.0000
    18 N5       7.1463   4.9461  17.3210   N.2       1 RES1   0.0000
    19 C9       7.9675   3.9234  17.5124   C.2       1 RES1   0.0000
    20 H6       8.6475   3.9076  18.1752   H         1 RES1   0.0000
    21 C10      7.7165   2.8614  16.6204   C.2       1 RES1   0.0000
    22 H7       8.1748   2.0309  16.5673   H         1 RES1   0.0000
    23 C11      6.6733   3.2840  15.8509   C.2       1 RES1   0.0000
    24 H8       6.2497   2.7994  15.1514   H         1 RES1   0.0000
    25 C12      3.8049   8.7850  16.3125   C.2       1 RES1   0.0000
    26 O1       2.6311   9.1493  16.4198   O.2       1 RES1   0.0000
    27 N6       4.8582   9.5113  16.7078   N.am      1 RES1   0.0000
    28 H9       5.6654   9.1755  16.6068   H         1 RES1   0.0000
    29 C13      4.7190  10.8330  17.2970   C.3       1 RES1   0.0000
    30 H10      5.3484  10.9192  18.0560   H         1 RES1   0.0000
    31 H11      3.7999  10.9366  17.6506   H         1 RES1   0.0000
    32 C14      4.9919  11.9305  16.3000   C.3       1 RES1   0.0000
    33 H12      4.9538  12.8163  16.7405   H         1 RES1   0.0000
    34 H13      5.8888  11.8162  15.8962   H         1 RES1   0.0000
    35 O2       3.9644  11.8243  15.2875   O.3       1 RES1   0.0000
    36 C15      4.0991  12.6079  14.2008   C.2       1 RES1   0.0000
    37 O3       4.9858  13.4041  14.0718   O.2       1 RES1   0.0000
    38 C16      3.0036  12.3592  13.1953   C.3       1 RES1   0.0000
    39 H14      3.3662  12.5310  12.2904   H         1 RES1   0.0000
    40 H15      2.2798  13.0152  13.3546   H         1 RES1   0.0000
    41 C17      2.3943  10.9604  13.2100   C.3       1 RES1   0.0000
    42 H16      3.1195  10.2894  13.1390   H         1 RES1   0.0000
    43 H17      1.9316  10.8163  14.0733   H         1 RES1   0.0000
    44 C18      1.4050  10.7485  12.0710   C.3       1 RES1   0.0000
    45 H18      1.8731  10.8611  11.2060   H         1 RES1   0.0000
    46 H19      0.6933  11.4346  12.1246   H         1 RES1   0.0000
    47 C19      0.7718   9.3582  12.1260   C.3       1 RES1   0.0000
    48 H20      1.4956   8.6831  12.1078   H         1 RES1   0.0000
    49 H21      0.2977   9.2634  12.9898   H         1 RES1   0.0000
    50 C20     -0.2093   9.0459  10.9992   C.3       1 RES1   0.0000
    51 H22     -0.9551   9.7104  11.0400   H         1 RES1   0.0000
    52 S1       0.5954   9.1798   9.3369   S.3       1 RES1   0.0000
    53 S2       0.2286   7.2303   8.7374   S.3       1 RES1   0.0000
    54 C21     -1.2175   7.0615   9.8089   C.3       1 RES1   0.0000
    55 H23     -1.9882   7.5572   9.4338   H         1 RES1   0.0000
    56 H24     -1.4689   6.1095   9.9072   H         1 RES1   0.0000
    57 C22     -0.8095   7.6446  11.1426   C.3       1 RES1   0.0000
    58 H25     -0.1443   7.0477  11.5689   H         1 RES1   0.0000
    59 H26     -1.6017   7.6889  11.7347   H         1 RES1   0.0000
@<TRIPOS>BOND
     1     1     2   ar
     2     2     3   ar
     3     3     4    1
     4     5     3   ar
     5     6     5   ar
     6     7     6    1
     7     8     1   ar
     8     9     2    1
     9    10     9    1
    10    11    10    2
    11    12    11    1
    12    13    11    1
    13    14    13    1
    14    15     9    1
    15    16    15    1
    16    17     8    1
    17    18    17    1
    18    19    18    2
    19    20    19    1
    20    21    19    1
    21    22    21    1
    22    23    17    1
    23    24    23    1
    24    25     5    1
    25    26    25    2
    26    27    25   am
    27    28    27    1
    28    29    27    1
    29    30    29    1
    30    31    29    1
    31    32    29    1
    32    33    32    1
    33    34    32    1
    34    35    32    1
    35    36    35    1
    36    37    36    2
    37    38    36    1
    38    39    38    1
    39    40    38    1
    40    41    38    1
    41    42    41    1
    42    43    41    1
    43    44    41    1
    44    45    44    1
    45    46    44    1
    46    47    44    1
    47    48    47    1
    48    49    47    1
    49    50    47    1
    50    51    50    1
    51    52    50    1
    52    53    52    1
    53    54    53    1
    54    55    54    1
    55    56    54    1
    56    57    50    1
    57    58    57    1
    58    59    57    1
    59     6     8   ar
    60    13    15    2
    61    21    23    2
    62    54    57    1
@<TRIPOS>SUBSTRUCTURE
     1 RES1        1 GROUP             0 ****  ****    0  
@<TRIPOS>CRYSIN
    5.0813   12.2490   36.8728   90.0000   90.0000   90.0000    19     1
