@<TRIPOS>MOLECULE
IXITOZ
   109   110     1     0     0
SMALL
NO_CHARGES
****
Generated from the CSD

@<TRIPOS>ATOM
     1 C1       1.5632 -18.9592  -5.4764   C.3       1 RES1   0.0000
     2 H1       1.2607 -18.0616  -5.6389   H         1 RES1   0.0000
     3 H2       1.0524 -19.5706  -6.0118   H         1 RES1   0.0000
     4 H3       2.4915 -19.0288  -5.7070   H         1 RES1   0.0000
     5 C2       2.2112 -18.3182  -3.1680   C.3       1 RES1   0.0000
     6 H4       1.8955 -17.4240  -3.3172   H         1 RES1   0.0000
     7 H5       3.1341 -18.3786  -3.4274   H         1 RES1   0.0000
     8 H6       2.1237 -18.5383  -2.2406   H         1 RES1   0.0000
     9 C3       1.8556 -20.7203  -3.7841   C.3       1 RES1   0.0000
    10 H7       2.7895 -20.7831  -3.9916   H         1 RES1   0.0000
    11 H8       1.3593 -21.3169  -4.3483   H         1 RES1   0.0000
    12 H9       1.7172 -20.9633  -2.8632   H         1 RES1   0.0000
    13 C4       1.3804 -19.2980  -4.0075   C.3       1 RES1   0.0000
    14 C5      -0.1296 -19.1828  -3.6739   C.2       1 RES1   0.0000
    15 O1      -0.9361 -18.9683  -4.5636   O.2       1 RES1   0.0000
    16 N1      -0.5683 -19.3413  -2.4105   N.am      1 RES1   0.0000
    17 C6      -2.0229 -19.4086  -2.1855   C.3       1 RES1   0.0000
    18 H10     -2.4040 -20.1603  -2.6849   H         1 RES1   0.0000
    19 C7      -2.7364 -18.1209  -2.5668   C.2       1 RES1   0.0000
    20 O2      -2.3165 -17.0229  -2.2082   O.2       1 RES1   0.0000
    21 C8      -2.1437 -19.6664  -0.6803   C.3       1 RES1   0.0000
    22 H11     -2.2711 -18.8349  -0.1978   H         1 RES1   0.0000
    23 H12     -2.8892 -20.2572  -0.4896   H         1 RES1   0.0000
    24 C9      -0.8342 -20.3143  -0.3016   C.3       1 RES1   0.0000
    25 H13     -0.6425 -20.1899   0.6420   H         1 RES1   0.0000
    26 H14     -0.8431 -21.2633  -0.5026   H         1 RES1   0.0000
    27 C10      0.1606 -19.5888  -1.1560   C.3       1 RES1   0.0000
    28 H15      0.4332 -18.7551  -0.7426   H         1 RES1   0.0000
    29 H16      0.9472 -20.1352  -1.3133   H         1 RES1   0.0000
    30 N2      -3.8608 -18.2999  -3.2698   N.am      1 RES1   0.0000
    31 H17     -4.0436 -19.0984  -3.5312   H         1 RES1   0.0000
    32 C11     -4.7958 -17.2472  -3.6233   C.3       1 RES1   0.0000
    33 H18     -5.4971 -17.6601  -4.1700   H         1 RES1   0.0000
    34 C12     -4.1666 -16.1374  -4.4715   C.2       1 RES1   0.0000
    35 O3      -4.7449 -15.0530  -4.5568   O.2       1 RES1   0.0000
    36 C13     -5.4882 -16.6415  -2.3927   C.3       1 RES1   0.0000
    37 H19     -5.8860 -17.3430  -1.8710   H         1 RES1   0.0000
    38 H20     -6.1707 -16.0290  -2.6784   H         1 RES1   0.0000
    39 H21     -4.8424 -16.1738  -1.8580   H         1 RES1   0.0000
    40 N3      -3.0011 -16.3849  -5.0698   N.am      1 RES1   0.0000
    41 H22     -2.7031 -17.1913  -5.0747   H         1 RES1   0.0000
    42 C14     -2.2068 -15.3344  -5.7203   C.3       1 RES1   0.0000
    43 C15     -2.0362 -14.1333  -4.7507   C.2       1 RES1   0.0000
    44 O4      -1.9166 -12.9914  -5.1826   O.2       1 RES1   0.0000
    45 C16     -0.8143 -15.9092  -5.9638   C.3       1 RES1   0.0000
    46 H23     -0.4287 -16.1784  -5.1266   H         1 RES1   0.0000
    47 H24     -0.2592 -15.2408  -6.3717   H         1 RES1   0.0000
    48 H25     -0.8796 -16.6689  -6.5468   H         1 RES1   0.0000
    49 C17     -2.8416 -14.8793  -7.0274   C.3       1 RES1   0.0000
    50 H26     -3.7168 -14.5257  -6.8516   H         1 RES1   0.0000
    51 H27     -2.9136 -15.6275  -7.6266   H         1 RES1   0.0000
    52 H28     -2.2966 -14.1995  -7.4288   H         1 RES1   0.0000
    53 N4      -1.9963 -14.4358  -3.4462   N.am      1 RES1   0.0000
    54 H29     -2.0528 -15.2625  -3.2167   H         1 RES1   0.0000
    55 C18     -1.8645 -13.4330  -2.3891   C.3       1 RES1   0.0000
    56 H30     -2.0739 -13.8938  -1.5500   H         1 RES1   0.0000
    57 C19     -2.8848 -12.3003  -2.5140   C.2       1 RES1   0.0000
    58 O5      -2.6488 -11.1908  -2.0548   O.2       1 RES1   0.0000
    59 C20     -0.4376 -12.8980  -2.2332   C.3       1 RES1   0.0000
    60 H31     -0.1872 -12.4475  -3.0545   H         1 RES1   0.0000
    61 H32     -0.4343 -12.2353  -1.5240   H         1 RES1   0.0000
    62 C21      0.6126 -13.9360  -1.9193   C.3       1 RES1   0.0000
    63 H33      0.7212 -14.4789  -2.7270   H         1 RES1   0.0000
    64 C22      0.3335 -14.8633  -0.8295   C.3       1 RES1   0.0000
    65 H34      1.0580 -15.4872  -0.7458   H         1 RES1   0.0000
    66 H35     -0.4797 -15.3389  -1.0149   H         1 RES1   0.0000
    67 H36      0.2382 -14.3740  -0.0097   H         1 RES1   0.0000
    68 C23      1.9531 -13.2037  -1.6956   C.3       1 RES1   0.0000
    69 H37      2.1138 -12.6003  -2.4255   H         1 RES1   0.0000
    70 H38      2.6644 -13.8470  -1.6505   H         1 RES1   0.0000
    71 H39      1.9143 -12.7098  -0.8723   H         1 RES1   0.0000
    72 N5      -4.0658 -12.6003  -3.0827   N.am      1 RES1   0.0000
    73 H40     -4.2009 -13.4067  -3.3496   H         1 RES1   0.0000
    74 C24     -5.1304 -11.6183  -3.2705   C.3       1 RES1   0.0000
    75 C25     -4.6274 -10.4035  -4.0555   C.2       1 RES1   0.0000
    76 O6      -5.1448  -9.2949  -3.8872   O.2       1 RES1   0.0000
    77 C26     -6.2128 -12.2638  -4.1408   C.3       1 RES1   0.0000
    78 H41     -6.5640 -13.0360  -3.6933   H         1 RES1   0.0000
    79 H42     -5.8317 -12.5262  -4.9806   H         1 RES1   0.0000
    80 H43     -6.9196 -11.6319  -4.2932   H         1 RES1   0.0000
    81 C27     -5.7286 -11.1848  -1.9303   C.3       1 RES1   0.0000
    82 H44     -6.0355 -11.9582  -1.4527   H         1 RES1   0.0000
    83 H45     -6.4665 -10.5917  -2.0850   H         1 RES1   0.0000
    84 H46     -5.0584 -10.7331  -1.4138   H         1 RES1   0.0000
    85 N6      -3.7223 -10.6202  -5.0072   N.am      1 RES1   0.0000
    86 H47     -3.3556 -11.3947  -5.0747   H         1 RES1   0.0000
    87 C28     -3.3457  -9.5674  -5.9317   C.3       1 RES1   0.0000
    88 H48     -2.8638  -8.8637  -5.4508   H         1 RES1   0.0000
    89 C29     -4.5787  -8.9743  -6.6039   C.2       1 RES1   0.0000
    90 O7      -5.4871  -9.6096  -7.0562   O.2       1 RES1   0.0000
    91 C30     -2.4317 -10.1674  -7.0199   C.3       1 RES1   0.0000
    92 H49     -1.5842 -10.4161  -6.6181   H         1 RES1   0.0000
    93 H50     -2.8427 -10.9749  -7.3672   H         1 RES1   0.0000
    94 C31     -2.1736  -9.2127  -8.1688   C.ar      1 RES1   0.0000
    95 C32     -1.4147  -8.0903  -8.0040   C.ar      1 RES1   0.0000
    96 H51     -1.0403  -7.9044  -7.1726   H         1 RES1   0.0000
    97 C33     -1.1987  -7.2246  -9.0663   C.ar      1 RES1   0.0000
    98 H52     -0.6802  -6.4604  -8.9496   H         1 RES1   0.0000
    99 C34     -1.7592  -7.5052 -10.2972   C.ar      1 RES1   0.0000
   100 H53     -1.6119  -6.9303 -11.0119   H         1 RES1   0.0000
   101 C35     -2.5192  -8.6070 -10.4700   C.ar      1 RES1   0.0000
   102 H54     -2.8959  -8.7907 -11.3005   H         1 RES1   0.0000
   103 C36     -2.7319  -9.4568  -9.4103   C.ar      1 RES1   0.0000
   104 H55     -3.2626 -10.2119  -9.5300   H         1 RES1   0.0000
   105 O8      -4.4613  -7.6505  -6.6749   O.3       1 RES1   0.0000
   106 C37     -5.4450  -6.9737  -7.4907   C.3       1 RES1   0.0000
   107 H56     -5.2800  -6.0281  -7.4710   H         1 RES1   0.0000
   108 H57     -6.3236  -7.1516  -7.1467   H         1 RES1   0.0000
   109 H58     -5.3841  -7.2908  -8.3951   H         1 RES1   0.0000
@<TRIPOS>BOND
     1     1     2    1
     2     3     1    1
     3     4     1    1
     4     5     6    1
     5     7     5    1
     6     8     5    1
     7     9    10    1
     8    11     9    1
     9    12     9    1
    10    13     1    1
    11    14    13    1
    12    15    14    2
    13    16    14   am
    14    17    16    1
    15    18    17    1
    16    19    17    1
    17    20    19    2
    18    21    17    1
    19    22    21    1
    20    23    21    1
    21    24    21    1
    22    25    24    1
    23    26    24    1
    24    27    16    1
    25    28    27    1
    26    29    27    1
    27    30    19   am
    28    31    30    1
    29    32    30    1
    30    33    32    1
    31    34    32    1
    32    35    34    2
    33    36    32    1
    34    37    36    1
    35    38    36    1
    36    39    36    1
    37    40    34   am
    38    41    40    1
    39    42    40    1
    40    43    42    1
    41    44    43    2
    42    45    42    1
    43    46    45    1
    44    47    45    1
    45    48    45    1
    46    49    42    1
    47    50    49    1
    48    51    49    1
    49    52    49    1
    50    53    43   am
    51    54    53    1
    52    55    53    1
    53    56    55    1
    54    57    55    1
    55    58    57    2
    56    59    55    1
    57    60    59    1
    58    61    59    1
    59    62    59    1
    60    63    62    1
    61    64    62    1
    62    65    64    1
    63    66    64    1
    64    67    64    1
    65    68    62    1
    66    69    68    1
    67    70    68    1
    68    71    68    1
    69    72    57   am
    70    73    72    1
    71    74    72    1
    72    75    74    1
    73    76    75    2
    74    77    74    1
    75    78    77    1
    76    79    77    1
    77    80    77    1
    78    81    74    1
    79    82    81    1
    80    83    81    1
    81    84    81    1
    82    85    75   am
    83    86    85    1
    84    87    85    1
    85    88    87    1
    86    89    87    1
    87    90    89    2
    88    91    87    1
    89    92    91    1
    90    93    91    1
    91    94    91    1
    92    95    94   ar
    93    96    95    1
    94    97    95   ar
    95    98    97    1
    96    99    97   ar
    97   100    99    1
    98   101    99   ar
    99   102   101    1
   100   103    94   ar
   101   104   103    1
   102   105    89    1
   103   106   105    1
   104   107   106    1
   105   108   106    1
   106   109   106    1
   107     5    13    1
   108     9    13    1
   109    24    27    1
   110   101   103   ar
@<TRIPOS>SUBSTRUCTURE
     1 RES1        1 GROUP             0 ****  ****    0  
@<TRIPOS>CRYSIN
   11.0784   11.4061   32.4260   90.0000   90.0000   90.0000    19     1
