@<TRIPOS>MOLECULE
01
    27    27     1     0     0
SMALL
NO_CHARGES
****
Generated from the CSD

@<TRIPOS>ATOM
     1 C1       1.5632 -18.9592  -5.4764   C.3       1 RES1   0.0000
     2 H1       1.2607 -18.0616  -5.6389   H         1 RES1   0.0000
     3 H2       1.0524 -19.5706  -6.0118   H         1 RES1   0.0000
     4 H3       2.4915 -19.0288  -5.7070   H         1 RES1   0.0000
     5 C2       2.2112 -18.3182  -3.1680   C.3       1 RES1   0.0000
     6 H4       1.8955 -17.4240  -3.3172   H         1 RES1   0.0000
     7 H5       3.1341 -18.3786  -3.4274   H         1 RES1   0.0000
     8 H6       2.1237 -18.5383  -2.2406   H         1 RES1   0.0000
     9 C3       1.8556 -20.7203  -3.7841   C.3       1 RES1   0.0000
    10 H7       2.7895 -20.7831  -3.9916   H         1 RES1   0.0000
    11 H8       1.3593 -21.3169  -4.3483   H         1 RES1   0.0000
    12 H9       1.7172 -20.9633  -2.8632   H         1 RES1   0.0000
    13 C4       1.3804 -19.2980  -4.0075   C.3       1 RES1   0.0000
    14 C5      -0.1296 -19.1828  -3.6739   C.2       1 RES1   0.0000
    15 O1      -0.9361 -18.9683  -4.5636   O.2       1 RES1   0.0000
    16 N1      -0.5683 -19.3413  -2.4105   N.am      1 RES1   0.0000
    17 C6      -2.0229 -19.4086  -2.1855   C.3       1 RES1   0.0000
    18 H10     -2.4040 -20.1603  -2.6849   H         1 RES1   0.0000
    19 C8      -2.1437 -19.6664  -0.6803   C.3       1 RES1   0.0000
    20 H11     -2.2711 -18.8349  -0.1978   H         1 RES1   0.0000
    21 H12     -2.8892 -20.2572  -0.4896   H         1 RES1   0.0000
    22 C9      -0.8342 -20.3143  -0.3016   C.3       1 RES1   0.0000
    23 H13     -0.6425 -20.1899   0.6420   H         1 RES1   0.0000
    24 H14     -0.8431 -21.2633  -0.5026   H         1 RES1   0.0000
    25 C10      0.1606 -19.5888  -1.1560   C.3       1 RES1   0.0000
    26 H15      0.4332 -18.7551  -0.7426   H         1 RES1   0.0000
    27 H16      0.9472 -20.1352  -1.3133   H         1 RES1   0.0000
@<TRIPOS>BOND
     1     1     2    1
     2     3     1    1
     3     4     1    1
     4     5     6    1
     5     7     5    1
     6     8     5    1
     7     9    10    1
     8    11     9    1
     9    12     9    1
    10    13     1    1
    11    14    13    1
    12    15    14    2
    13    16    14   am
    14    17    16    1
    15    18    17    1
    16    19    17    1
    17    20    19    1
    18    21    19    1
    19    22    19    1
    20    23    22    1
    21    24    22    1
    22    25    16    1
    23    26    25    1
    24    27    25    1
    25     5    13    1
    26     9    13    1
    27    22    25    1
@<TRIPOS>SUBSTRUCTURE
     1 RES1        1 GROUP             0 ****  ****    0  
