@<TRIPOS>MOLECULE
02
    23    23     1     0     0
SMALL
NO_CHARGES
****
Generated from the CSD

@<TRIPOS>ATOM
     1 C28     -3.3457  -9.5674  -5.9317   C.3       1 RES2   0.0000
     2 H48     -2.8638  -8.8637  -5.4508   H         1 RES2   0.0000
     3 C29     -4.5787  -8.9743  -6.6039   C.2       1 RES2   0.0000
     4 O7      -5.4871  -9.6096  -7.0562   O.2       1 RES2   0.0000
     5 C30     -2.4317 -10.1674  -7.0199   C.3       1 RES2   0.0000
     6 H49     -1.5842 -10.4161  -6.6181   H         1 RES2   0.0000
     7 H50     -2.8427 -10.9749  -7.3672   H         1 RES2   0.0000
     8 C31     -2.1736  -9.2127  -8.1688   C.ar      1 RES2   0.0000
     9 C32     -1.4147  -8.0903  -8.0040   C.ar      1 RES2   0.0000
    10 H51     -1.0403  -7.9044  -7.1726   H         1 RES2   0.0000
    11 C33     -1.1987  -7.2246  -9.0663   C.ar      1 RES2   0.0000
    12 H52     -0.6802  -6.4604  -8.9496   H         1 RES2   0.0000
    13 C34     -1.7592  -7.5052 -10.2972   C.ar      1 RES2   0.0000
    14 H53     -1.6119  -6.9303 -11.0119   H         1 RES2   0.0000
    15 C35     -2.5192  -8.6070 -10.4700   C.ar      1 RES2   0.0000
    16 H54     -2.8959  -8.7907 -11.3005   H         1 RES2   0.0000
    17 C36     -2.7319  -9.4568  -9.4103   C.ar      1 RES2   0.0000
    18 H55     -3.2626 -10.2119  -9.5300   H         1 RES2   0.0000
    19 O8      -4.4613  -7.6505  -6.6749   O.3       1 RES2   0.0000
    20 C37     -5.4450  -6.9737  -7.4907   C.3       1 RES2   0.0000
    21 H56     -5.2800  -6.0281  -7.4710   H         1 RES2   0.0000
    22 H57     -6.3236  -7.1516  -7.1467   H         1 RES2   0.0000
    23 H58     -5.3841  -7.2908  -8.3951   H         1 RES2   0.0000
@<TRIPOS>BOND
     1     2     1    1
     2     3     1    1
     3     4     3    2
     4     5     1    1
     5     6     5    1
     6     7     5    1
     7     8     5    1
     8     9     8   ar
     9    10     9    1
    10    11     9   ar
    11    12    11    1
    12    13    11   ar
    13    14    13    1
    14    15    13   ar
    15    16    15    1
    16    17     8   ar
    17    18    17    1
    18    19     3    1
    19    20    19    1
    20    21    20    1
    21    22    20    1
    22    23    20    1
    23    15    17   ar
@<TRIPOS>SUBSTRUCTURE
     1 RES2        1 GROUP             0 ****  ****    0  
