@<TRIPOS>MOLECULE
01
    13    13     1     0     0
SMALL
NO_CHARGES
****
Generated from the CSD

@<TRIPOS>ATOM
     1 C1      12.0503   1.7666  14.8679   C.ar      1 RES1   0.0000
     2 C2      10.7521   2.1930  15.0560   C.ar      1 RES1   0.0000
     3 H1      10.1902   1.7518  15.6825   H         1 RES1   0.0000
     4 C3      10.2747   3.2613  14.3331   C.ar      1 RES1   0.0000
     5 H2       9.3874   3.5707  14.4671   H         1 RES1   0.0000
     6 C4      11.1025   3.8874  13.4026   C.ar      1 RES1   0.0000
     7 C5      12.4234   3.4675  13.2575   C.ar      1 RES1   0.0000
     8 H3      12.9964   3.9213  12.6491   H         1 RES1   0.0000
     9 C6      12.9081   2.4051  13.9834   C.ar      1 RES1   0.0000
    10 H4      13.8073   2.1153  13.8822   H         1 RES1   0.0000
    11 N1      12.4976   0.5890  15.6017   N.pl3     1 RES1   0.0000
    12 O7      11.6920   0.0015  16.3228   O.2       1 RES1   0.0000
    13 O8      13.6609   0.2240  15.4673   O.2       1 RES1   0.0000
@<TRIPOS>BOND
     1     1     2   ar
     2     2     3    1
     3     4     2   ar
     4     5     4    1
     5     6     4   ar
     6     7     6   ar
     7     8     7    1
     8     9     1   ar
     9    10     9    1
    10    11     1    1
    11    12    11    2
    12    13    11    2
    13     7     9   ar
@<TRIPOS>SUBSTRUCTURE
     1 RES1        1 GROUP             0 ****  ****    0  
