@<TRIPOS>MOLECULE
LENJUK
    52    53     1     0     0
SMALL
NO_CHARGES
****
Generated from the CSD

@<TRIPOS>ATOM
     1 C1      12.0503   1.7666  14.8679   C.ar      1 RES1   0.0000
     2 C2      10.7521   2.1930  15.0560   C.ar      1 RES1   0.0000
     3 H1      10.1902   1.7518  15.6825   H         1 RES1   0.0000
     4 C3      10.2747   3.2613  14.3331   C.ar      1 RES1   0.0000
     5 H2       9.3874   3.5707  14.4671   H         1 RES1   0.0000
     6 C4      11.1025   3.8874  13.4026   C.ar      1 RES1   0.0000
     7 C5      12.4234   3.4675  13.2575   C.ar      1 RES1   0.0000
     8 H3      12.9964   3.9213  12.6491   H         1 RES1   0.0000
     9 C6      12.9081   2.4051  13.9834   C.ar      1 RES1   0.0000
    10 H4      13.8073   2.1153  13.8822   H         1 RES1   0.0000
    11 C7       9.3170   5.2648  12.6519   C.3       1 RES1   0.0000
    12 H5       9.1397   5.7437  13.4997   H         1 RES1   0.0000
    13 H6       8.7457   4.4578  12.6254   H         1 RES1   0.0000
    14 C8       8.9988   6.1507  11.4926   C.3       1 RES1   0.0000
    15 H7       9.3369   5.7425  10.6568   H         1 RES1   0.0000
    16 H8       8.0186   6.2578  11.4115   H         1 RES1   0.0000
    17 C9       9.2058   8.3273  10.6737   C.3       1 RES1   0.0000
    18 H9       8.2319   8.4943  10.7366   H         1 RES1   0.0000
    19 H10      9.3977   7.9414   9.7825   H         1 RES1   0.0000
    20 C10      9.9538   9.6102  10.8438   C.3       1 RES1   0.0000
    21 H11     10.9266   9.4285  10.8547   H         1 RES1   0.0000
    22 H12      9.7614  10.2097  10.0794   H         1 RES1   0.0000
    23 C11     10.4730  11.2579  12.4589   C.3       1 RES1   0.0000
    24 H13     11.3886  10.8791  12.4763   H         1 RES1   0.0000
    25 H14     10.2461  11.5368  13.3816   H         1 RES1   0.0000
    26 C12     10.4705  12.4744  11.5710   C.3       1 RES1   0.0000
    27 H15     11.2005  13.0897  11.8339   H         1 RES1   0.0000
    28 H16     10.6095  12.2085  10.6273   H         1 RES1   0.0000
    29 C13      7.9999  12.5373   9.4542   C.ar      1 RES1   0.0000
    30 C14      8.6726  12.1988   8.3011   C.ar      1 RES1   0.0000
    31 H17      9.4321  12.6980   8.0222   H         1 RES1   0.0000
    32 C15      8.2277  11.1203   7.5513   C.ar      1 RES1   0.0000
    33 H18      8.6854  10.8838   6.7536   H         1 RES1   0.0000
    34 C16      7.1266  10.3832   7.9501   C.ar      1 RES1   0.0000
    35 C17      6.4628  10.7497   9.1165   C.ar      1 RES1   0.0000
    36 H19      5.7056  10.2485   9.3986   H         1 RES1   0.0000
    37 C18      6.8825  11.8321   9.8778   C.ar      1 RES1   0.0000
    38 H20      6.4166  12.0827  10.6672   H         1 RES1   0.0000
    39 C19      6.6579   9.2002   7.1479   C.3       1 RES1   0.0000
    40 H21      6.1077   9.5120   6.3991   H         1 RES1   0.0000
    41 H22      6.1269   8.6085   7.7209   H         1 RES1   0.0000
    42 H23      7.4334   8.7120   6.8023   H         1 RES1   0.0000
    43 N1      12.4976   0.5890  15.6017   N.pl3     1 RES1   0.0000
    44 O1      10.6992   4.8869  12.5862   O.3       1 RES1   0.0000
    45 O2       9.6051   7.4183  11.6859   O.3       1 RES1   0.0000
    46 O3       9.5740  10.2473  12.0580   O.3       1 RES1   0.0000
    47 O4       9.1790  13.1364  11.7203   O.3       1 RES1   0.0000
    48 O5       9.6141  14.5447   9.7629   O.2       1 RES1   0.0000
    49 O6       7.4717  14.5927  10.9803   O.2       1 RES1   0.0000
    50 O7      11.6920   0.0015  16.3228   O.2       1 RES1   0.0000
    51 O8      13.6609   0.2240  15.4673   O.2       1 RES1   0.0000
    52 S1       8.5759  13.8635  10.4518   S.o2      1 RES1   0.0000
@<TRIPOS>BOND
     1     1     2   ar
     2     2     3    1
     3     4     2   ar
     4     5     4    1
     5     6     4   ar
     6     7     6   ar
     7     8     7    1
     8     9     1   ar
     9    10     9    1
    10    11    12    1
    11    13    11    1
    12    14    11    1
    13    15    14    1
    14    16    14    1
    15    17    18    1
    16    19    17    1
    17    20    17    1
    18    21    20    1
    19    22    20    1
    20    23    24    1
    21    25    23    1
    22    26    23    1
    23    27    26    1
    24    28    26    1
    25    29    30   ar
    26    30    31    1
    27    32    30   ar
    28    33    32    1
    29    34    32   ar
    30    35    34   ar
    31    36    35    1
    32    37    29   ar
    33    38    37    1
    34    39    34    1
    35    40    39    1
    36    41    39    1
    37    42    39    1
    38    43     1    1
    39    44     6    1
    40    45    14    1
    41    46    20    1
    42    47    26    1
    43    48    52    2
    44    49    52    2
    45    50    43    2
    46    51    43    2
    47    52    29    1
    48     7     9   ar
    49    11    44    1
    50    17    45    1
    51    23    46    1
    52    35    37   ar
    53    47    52    1
@<TRIPOS>SUBSTRUCTURE
     1 RES1        1 GROUP             0 ****  ****    0  
@<TRIPOS>CRYSIN
   11.5150   11.7650   14.8830   90.0000   97.1170   90.0000     9     1
