@<TRIPOS>MOLECULE
02
    17    17     1     0     0
SMALL
NO_CHARGES
****
Generated from the CSD

@<TRIPOS>ATOM
     1 C13      7.9999  12.5373   9.4542   C.ar      1 RES2   0.0000
     2 C14      8.6726  12.1988   8.3011   C.ar      1 RES2   0.0000
     3 H17      9.4321  12.6980   8.0222   H         1 RES2   0.0000
     4 C15      8.2277  11.1203   7.5513   C.ar      1 RES2   0.0000
     5 H18      8.6854  10.8838   6.7536   H         1 RES2   0.0000
     6 C16      7.1266  10.3832   7.9501   C.ar      1 RES2   0.0000
     7 C17      6.4628  10.7497   9.1165   C.ar      1 RES2   0.0000
     8 H19      5.7056  10.2485   9.3986   H         1 RES2   0.0000
     9 C18      6.8825  11.8321   9.8778   C.ar      1 RES2   0.0000
    10 H20      6.4166  12.0827  10.6672   H         1 RES2   0.0000
    11 C19      6.6579   9.2002   7.1479   C.3       1 RES2   0.0000
    12 H21      6.1077   9.5120   6.3991   H         1 RES2   0.0000
    13 H22      6.1269   8.6085   7.7209   H         1 RES2   0.0000
    14 H23      7.4334   8.7120   6.8023   H         1 RES2   0.0000
    15 O5       9.6141  14.5447   9.7629   O.2       1 RES2   0.0000
    16 O6       7.4717  14.5927  10.9803   O.2       1 RES2   0.0000
    17 S1       8.5759  13.8635  10.4518   S.o       1 RES2   0.0000
@<TRIPOS>BOND
     1     1     2   ar
     2     2     3    1
     3     4     2   ar
     4     5     4    1
     5     6     4   ar
     6     7     6   ar
     7     8     7    1
     8     9     1   ar
     9    10     9    1
    10    11     6    1
    11    12    11    1
    12    13    11    1
    13    14    11    1
    14    15    17    2
    15    16    17    2
    16    17     1    1
    17     7     9   ar
@<TRIPOS>SUBSTRUCTURE
     1 RES2        1 GROUP             0 ****  ****    0  
