@<TRIPOS>MOLECULE
01
    37    38     1     0     0
SMALL
NO_CHARGES
****
Generated from the CSD

@<TRIPOS>ATOM
     1 S1      -0.9908   1.6671  19.0467   S.3       1 RES1   0.0000
     2 O1       0.3293  -0.7604  25.8645   O.3       1 RES1   0.0000
     3 O2      -0.0469  -2.1847  24.1823   O.2       1 RES1   0.0000
     4 O3      -2.5766  -4.6451  23.7606   O.3       1 RES1   0.0000
     5 O4      -3.0903  -6.0694  22.1182   O.2       1 RES1   0.0000
     6 N1      -2.6115  -1.6086  19.8307   N.ar      1 RES1   0.0000
     7 C1       0.2575   0.9625  21.4260   C.ar      1 RES1   0.0000
     8 C2       0.1768  -0.0966  22.3117   C.ar      1 RES1   0.0000
     9 C3       0.2070   0.1223  23.6911   C.ar      1 RES1   0.0000
    10 C4       0.2939   1.4199  24.1774   C.ar      1 RES1   0.0000
    11 C5       0.3523   2.4808  23.3016   C.ar      1 RES1   0.0000
    12 C6       0.3415   2.2539  21.9395   C.ar      1 RES1   0.0000
    13 C7       0.1524  -1.0272  24.6165   C.2       1 RES1   0.0000
    14 C8       0.2686   0.7294  19.9398   C.3       1 RES1   0.0000
    15 C9      -2.4715   0.7959  19.6049   C.3       1 RES1   0.0000
    16 C10     -2.6046  -0.5699  19.0045   C.ar      1 RES1   0.0000
    17 C11     -2.7323  -2.8521  19.3221   C.ar      1 RES1   0.0000
    18 C12     -2.8326  -3.0826  17.9401   C.ar      1 RES1   0.0000
    19 C13     -2.8377  -1.9871  17.0892   C.ar      1 RES1   0.0000
    20 C14     -2.7268  -0.7356  17.6275   C.ar      1 RES1   0.0000
    21 C15     -2.7885  -3.9547  20.2772   C.2       1 RES1   0.0000
    22 C16     -2.6481  -3.8058  21.5947   C.2       1 RES1   0.0000
    23 C17     -2.7810  -4.9216  22.5201   C.2       1 RES1   0.0000
    24 H1       0.2279  -1.4518  26.3135   H         1 RES1   0.0000
    25 H2      -2.6296  -5.3391  24.2121   H         1 RES1   0.0000
    26 H3       0.1012  -0.9740  21.9817   H         1 RES1   0.0000
    27 H4       0.3122   1.5732  25.1053   H         1 RES1   0.0000
    28 H5       0.3996   3.3600  23.6316   H         1 RES1   0.0000
    29 H6       0.3916   3.2767  21.3490   H         1 RES1   0.0000
    30 H7       0.1325  -0.2260  19.7686   H         1 RES1   0.0000
    31 H8       1.1510   0.9714  19.5875   H         1 RES1   0.0000
    32 H9      -2.4451   0.7144  20.5799   H         1 RES1   0.0000
    33 H10     -3.2620   1.3259  19.3692   H         1 RES1   0.0000
    34 H11     -2.9153  -2.1032  16.1588   H         1 RES1   0.0000
    35 H12     -2.7336   0.0177  17.0643   H         1 RES1   0.0000
    36 H13     -2.9328  -4.8215  19.9423   H         1 RES1   0.0000
    37 H14     -2.4556  -2.9514  21.9370   H         1 RES1   0.0000
@<TRIPOS>BOND
     1     1    14    1
     2     2    13    1
     3     3    13    2
     4     4    23    1
     5     5    23    2
     6     6    16   ar
     7     7     8   ar
     8     8     9   ar
     9     9    10   ar
    10    10    11   ar
    11    11    12   ar
    12    12     7   ar
    13    13     9    1
    14    14     7    1
    15    15     1    1
    16    16    15    1
    17    17     6   ar
    18    18    17   ar
    19    19    18   ar
    20    20    16   ar
    21    21    17    1
    22    22    21    2
    23    23    22    1
    24    24     2    1
    25    25     4    1
    26    26     8    1
    27    27    10    1
    28    28    11    1
    29    29    12    1
    30    30    14    1
    31    31    14    1
    32    32    15    1
    33    33    15    1
    34    34    19    1
    35    35    20    1
    36    36    21    1
    37    37    22    1
    38    19    20   ar
@<TRIPOS>SUBSTRUCTURE
     1 RES1        1 GROUP             0 ****  ****    0  
