@<TRIPOS>MOLECULE
LIGKAN
    77    79     1     0     0
SMALL
NO_CHARGES
****
Generated from the CSD

@<TRIPOS>ATOM
     1 S1      -0.9908   1.6671  19.0467   S.3       1 RES1   0.0000
     2 O1       0.3293  -0.7604  25.8645   O.3       1 RES1   0.0000
     3 O2      -0.0469  -2.1847  24.1823   O.2       1 RES1   0.0000
     4 O3      -2.5766  -4.6451  23.7606   O.3       1 RES1   0.0000
     5 O4      -3.0903  -6.0694  22.1182   O.2       1 RES1   0.0000
     6 O5      -2.9279  -4.3739  17.5308   O.3       1 RES1   0.0000
     7 O6      -2.2660 -15.1070   6.6268   O.3       1 RES1   0.0000
     8 N1      -2.6115  -1.6086  19.8307   N.ar      1 RES1   0.0000
     9 C1       0.2575   0.9625  21.4260   C.ar      1 RES1   0.0000
    10 C2       0.1768  -0.0966  22.3117   C.ar      1 RES1   0.0000
    11 C3       0.2070   0.1223  23.6911   C.ar      1 RES1   0.0000
    12 C4       0.2939   1.4199  24.1774   C.ar      1 RES1   0.0000
    13 C5       0.3523   2.4808  23.3016   C.ar      1 RES1   0.0000
    14 C6       0.3415   2.2539  21.9395   C.ar      1 RES1   0.0000
    15 C7       0.1524  -1.0272  24.6165   C.2       1 RES1   0.0000
    16 C8       0.2686   0.7294  19.9398   C.3       1 RES1   0.0000
    17 C9      -2.4715   0.7959  19.6049   C.3       1 RES1   0.0000
    18 C10     -2.6046  -0.5699  19.0045   C.ar      1 RES1   0.0000
    19 C11     -2.7323  -2.8521  19.3221   C.ar      1 RES1   0.0000
    20 C12     -2.8326  -3.0826  17.9401   C.ar      1 RES1   0.0000
    21 C13     -2.8377  -1.9871  17.0892   C.ar      1 RES1   0.0000
    22 C14     -2.7268  -0.7356  17.6275   C.ar      1 RES1   0.0000
    23 C15     -2.7885  -3.9547  20.2772   C.2       1 RES1   0.0000
    24 C16     -2.6481  -3.8058  21.5947   C.2       1 RES1   0.0000
    25 C17     -2.7810  -4.9216  22.5201   C.2       1 RES1   0.0000
    26 C18     -2.9193  -4.6283  16.1116   C.3       1 RES1   0.0000
    27 C19     -2.8646  -6.1172  15.9355   C.3       1 RES1   0.0000
    28 C20     -2.8213  -6.5533  14.4767   C.3       1 RES1   0.0000
    29 C21     -2.6827  -8.0618  14.3452   C.3       1 RES1   0.0000
    30 C22     -2.6619  -8.6095  12.9260   C.3       1 RES1   0.0000
    31 C23     -2.5456 -10.1260  12.9012   C.3       1 RES1   0.0000
    32 C24     -2.5004 -10.7269  11.5044   C.3       1 RES1   0.0000
    33 C25     -2.2914 -12.2336  11.5342   C.3       1 RES1   0.0000
    34 C26     -2.2511 -12.9435  10.1994   C.ar      1 RES1   0.0000
    35 C27     -2.1988 -14.3350  10.1597   C.ar      1 RES1   0.0000
    36 C28     -2.1799 -15.0254   8.9614   C.ar      1 RES1   0.0000
    37 C29     -2.2274 -14.3386   7.7655   C.ar      1 RES1   0.0000
    38 C30     -2.2753 -12.9621   7.7755   C.ar      1 RES1   0.0000
    39 C31     -2.2802 -12.2832   8.9887   C.ar      1 RES1   0.0000
    40 C32     -2.3163 -14.4219   5.3863   C.3       1 RES1   0.0000
    41 H1       0.2279  -1.4518  26.3135   H         1 RES1   0.0000
    42 H2      -2.6296  -5.3391  24.2121   H         1 RES1   0.0000
    43 H3       0.1012  -0.9740  21.9817   H         1 RES1   0.0000
    44 H4       0.3122   1.5732  25.1053   H         1 RES1   0.0000
    45 H5       0.3996   3.3600  23.6316   H         1 RES1   0.0000
    46 H6       0.3916   3.2767  21.3490   H         1 RES1   0.0000
    47 H7       0.1325  -0.2260  19.7686   H         1 RES1   0.0000
    48 H8       1.1510   0.9714  19.5875   H         1 RES1   0.0000
    49 H9      -2.4451   0.7144  20.5799   H         1 RES1   0.0000
    50 H10     -3.2620   1.3259  19.3692   H         1 RES1   0.0000
    51 H11     -2.9153  -2.1032  16.1588   H         1 RES1   0.0000
    52 H12     -2.7336   0.0177  17.0643   H         1 RES1   0.0000
    53 H13     -2.9328  -4.8215  19.9423   H         1 RES1   0.0000
    54 H14     -2.4556  -2.9514  21.9370   H         1 RES1   0.0000
    55 H15     -2.1399  -4.2064  15.6924   H         1 RES1   0.0000
    56 H16     -3.7305  -4.2666  15.6948   H         1 RES1   0.0000
    57 H17     -3.6499  -6.5170  16.3622   H         1 RES1   0.0000
    58 H18     -2.0681  -6.4611  16.3920   H         1 RES1   0.0000
    59 H19     -3.6427  -6.2626  14.0276   H         1 RES1   0.0000
    60 H20     -2.0646  -6.1190  14.0301   H         1 RES1   0.0000
    61 H21     -3.4279  -8.4810  14.8265   H         1 RES1   0.0000
    62 H22     -1.8543  -8.3339  14.7917   H         1 RES1   0.0000
    63 H23     -3.4840  -8.3419  12.4646   H         1 RES1   0.0000
    64 H24     -1.9042  -8.2204  12.4398   H         1 RES1   0.0000
    65 H25     -3.3097 -10.5071  13.3825   H         1 RES1   0.0000
    66 H26     -1.7328 -10.3865  13.3825   H         1 RES1   0.0000
    67 H27     -3.3401 -10.5284  11.0429   H         1 RES1   0.0000
    68 H28     -1.7715 -10.3112  11.0008   H         1 RES1   0.0000
    69 H29     -1.4479 -12.4144  12.0006   H         1 RES1   0.0000
    70 H30     -3.0100 -12.6298  12.0701   H         1 RES1   0.0000
    71 H31     -2.1749 -14.8163  10.9660   H         1 RES1   0.0000
    72 H32     -2.1340 -15.9649   8.9614   H         1 RES1   0.0000
    73 H33     -2.3031 -12.4844   6.9667   H         1 RES1   0.0000
    74 H34     -2.3042 -11.3438   8.9837   H         1 RES1   0.0000
    75 H35     -2.3422 -15.0662   4.6618   H         1 RES1   0.0000
    76 H36     -1.5298 -13.8617   5.2920   H         1 RES1   0.0000
    77 H37     -3.1131 -13.8679   5.3540   H         1 RES1   0.0000
@<TRIPOS>BOND
     1     1    16    1
     2     2    15    1
     3     3    15    2
     4     4    25    1
     5     5    25    2
     6     6    20    1
     7     7    37    1
     8     8    18   ar
     9     9    10   ar
    10    10    11   ar
    11    11    12   ar
    12    12    13   ar
    13    13    14   ar
    14    14     9   ar
    15    15    11    1
    16    16     9    1
    17    17     1    1
    18    18    17    1
    19    19     8   ar
    20    20    19   ar
    21    21    20   ar
    22    22    18   ar
    23    23    19    1
    24    24    23    2
    25    25    24    1
    26    26     6    1
    27    27    26    1
    28    28    27    1
    29    29    28    1
    30    30    29    1
    31    31    30    1
    32    32    31    1
    33    33    32    1
    34    34    33    1
    35    35    34   ar
    36    36    35   ar
    37    37    36   ar
    38    38    37   ar
    39    39    34   ar
    40    40     7    1
    41    41     2    1
    42    42     4    1
    43    43    10    1
    44    44    12    1
    45    45    13    1
    46    46    14    1
    47    47    16    1
    48    48    16    1
    49    49    17    1
    50    50    17    1
    51    51    21    1
    52    52    22    1
    53    53    23    1
    54    54    24    1
    55    55    26    1
    56    56    26    1
    57    57    27    1
    58    58    27    1
    59    59    28    1
    60    60    28    1
    61    61    29    1
    62    62    29    1
    63    63    30    1
    64    64    30    1
    65    65    31    1
    66    66    31    1
    67    67    32    1
    68    68    32    1
    69    69    33    1
    70    70    33    1
    71    71    35    1
    72    72    36    1
    73    73    38    1
    74    74    39    1
    75    75    40    1
    76    76    40    1
    77    77    40    1
    78    21    22   ar
    79    38    39   ar
@<TRIPOS>SUBSTRUCTURE
     1 RES1        1 GROUP             0 ****  ****    0  
@<TRIPOS>CRYSIN
   13.5130    8.8630   24.8510   90.0000   93.2900   90.0000   231     1
