@<TRIPOS>MOLECULE
02
    15    15     1     0     0
SMALL
NO_CHARGES
****
Generated from the CSD

@<TRIPOS>ATOM
     1 O6      -2.2660 -15.1070   6.6268   O.3       1 RES2   0.0000
     2 C26     -2.2511 -12.9435  10.1994   C.ar      1 RES2   0.0000
     3 C27     -2.1988 -14.3350  10.1597   C.ar      1 RES2   0.0000
     4 C28     -2.1799 -15.0254   8.9614   C.ar      1 RES2   0.0000
     5 C29     -2.2274 -14.3386   7.7655   C.ar      1 RES2   0.0000
     6 C30     -2.2753 -12.9621   7.7755   C.ar      1 RES2   0.0000
     7 C31     -2.2802 -12.2832   8.9887   C.ar      1 RES2   0.0000
     8 C32     -2.3163 -14.4219   5.3863   C.3       1 RES2   0.0000
     9 H31     -2.1749 -14.8163  10.9660   H         1 RES2   0.0000
    10 H32     -2.1340 -15.9649   8.9614   H         1 RES2   0.0000
    11 H33     -2.3031 -12.4844   6.9667   H         1 RES2   0.0000
    12 H34     -2.3042 -11.3438   8.9837   H         1 RES2   0.0000
    13 H35     -2.3422 -15.0662   4.6618   H         1 RES2   0.0000
    14 H36     -1.5298 -13.8617   5.2920   H         1 RES2   0.0000
    15 H37     -3.1131 -13.8679   5.3540   H         1 RES2   0.0000
@<TRIPOS>BOND
     1     1     5    1
     2     3     2   ar
     3     4     3   ar
     4     5     4   ar
     5     6     5   ar
     6     7     2   ar
     7     8     1    1
     8     9     3    1
     9    10     4    1
    10    11     6    1
    11    12     7    1
    12    13     8    1
    13    14     8    1
    14    15     8    1
    15     6     7   ar
@<TRIPOS>SUBSTRUCTURE
     1 RES2        1 GROUP             0 ****  ****    0  
