@<TRIPOS>MOLECULE
01
    22    22     1     0     0
SMALL
NO_CHARGES
****
Generated from the CSD

@<TRIPOS>ATOM
     1 C2      11.8631   9.8206   1.6531   C.ar      1 RES1   0.0000
     2 C3      12.9530  10.6752   1.6672   C.ar      1 RES1   0.0000
     3 C4      12.8178  12.0560   1.7923   C.ar      1 RES1   0.0000
     4 C5      11.5420  12.5880   1.8823   C.ar      1 RES1   0.0000
     5 C6      10.4430  11.7546   1.8668   C.ar      1 RES1   0.0000
     6 C7      10.5814  10.3798   1.7656   C.ar      1 RES1   0.0000
     7 N2      14.0070  12.8187   1.8092   N.am      1 RES1   0.0000
     8 C8      14.1367  14.1795   1.8050   C.2       1 RES1   0.0000
     9 O2      13.1960  14.9517   1.8162   O.2       1 RES1   0.0000
    10 C9      15.5508  14.6621   1.7909   C.3       1 RES1   0.0000
    11 O3       9.5115   9.5158   1.7909   O.3       1 RES1   0.0000
    12 C10      8.1984  10.0349   1.7206   C.3       1 RES1   0.0000
    13 H2      13.8171  10.2762   1.5646   H         1 RES1   0.0000
    14 H3      11.4088  13.5003   1.9976   H         1 RES1   0.0000
    15 H4       9.5504  12.1195   1.9666   H         1 RES1   0.0000
    16 H5      14.8027  12.4067   1.8022   H         1 RES1   0.0000
    17 H6      15.7263  15.2083   2.5866   H         1 RES1   0.0000
    18 H7      16.1961  13.9723   1.8134   H         1 RES1   0.0000
    19 H8      15.7662  15.2083   1.0121   H         1 RES1   0.0000
    20 H9       8.1110  10.5104   0.9011   H         1 RES1   0.0000
    21 H10      7.6111   9.2662   1.7586   H         1 RES1   0.0000
    22 H11      7.9809  10.6411   2.4882   H         1 RES1   0.0000
@<TRIPOS>BOND
     1     2     1   ar
     2     3     2   ar
     3     4     3   ar
     4     5     4   ar
     5     6     1   ar
     6     7     3    1
     7     8     7   am
     8     9     8    2
     9    10     8    1
    10    11     6    1
    11    12    11    1
    12    13     2    1
    13    14     4    1
    14    15     5    1
    15    16     7    1
    16    17    10    1
    17    18    10    1
    18    19    10    1
    19    20    12    1
    20    21    12    1
    21    22    12    1
    22     5     6   ar
@<TRIPOS>SUBSTRUCTURE
     1 RES1        1 GROUP             0 ****  ****    0  
