@<TRIPOS>MOLECULE
01
    59    59     1     0     0
SMALL
NO_CHARGES
****
Generated from the CSD

@<TRIPOS>ATOM
     1 C1       5.5794   3.7460   4.5214   C.ar      1 RES1   0.0000
     2 C2       5.5689   4.8396   5.3843   C.ar      1 RES1   0.0000
     3 C3       5.4130   6.1438   4.9689   C.ar      1 RES1   0.0000
     4 C4       5.3343   6.3763   3.5918   C.ar      1 RES1   0.0000
     5 C5       5.3856   5.3173   2.6821   C.ar      1 RES1   0.0000
     6 C6       5.4618   4.0100   3.1523   C.ar      1 RES1   0.0000
     7 C7       5.3704   7.1997   6.0188   C.2       1 RES1   0.0000
     8 O1       6.1954   7.1903   6.9404   O.2       1 RES1   0.0000
     9 N1       4.3814   8.0828   5.9400   N.am      1 RES1   0.0000
    10 C8       4.1013   9.1104   6.9244   C.3       1 RES1   0.0000
    11 C9       4.5966  10.4429   6.6118   C.3       1 RES1   0.0000
    12 C10      4.2055  11.3291   6.0441   C.3       1 RES1   0.0000
    13 C11      4.6906  12.7370   5.8384   C.3       1 RES1   0.0000
    14 C12      5.0563  13.3341   4.9422   C.3       1 RES1   0.0000
    15 C13      5.5655  14.7137   4.7485   C.3       1 RES1   0.0000
    16 O2       5.2167   7.6774   3.1910   O.3       1 RES1   0.0000
    17 C14      5.3452   7.9759   1.8019   C.3       1 RES1   0.0000
    18 C15      5.1506   9.4592   1.6416   C.3       1 RES1   0.0000
    19 C16      6.0844  10.1915   1.7311   C.3       1 RES1   0.0000
    20 C17      3.7318   9.8866   1.9154   C.3       1 RES1   0.0000
    21 O3       5.4283   2.9509   2.2974   O.3       1 RES1   0.0000
    22 C18      5.1931   3.1520   0.8989   C.3       1 RES1   0.0000
    23 C19      4.8928   1.7976   0.2698   C.3       1 RES1   0.0000
    24 C20      4.8752   1.9264  -1.2436   C.3       1 RES1   0.0000
    25 C21      3.5788   1.2256   0.7801   C.3       1 RES1   0.0000
    26 H1       5.6718   4.6762   6.2953   H         1 RES1   0.0000
    27 H2       5.3675   5.4870   1.7672   H         1 RES1   0.0000
    28 H3       3.8664   8.0388   5.2521   H         1 RES1   0.0000
    29 H4       4.4832   8.8338   7.7712   H         1 RES1   0.0000
    30 H5       3.1400   9.1607   7.0446   H         1 RES1   0.0000
    31 H6       4.8086  10.8105   7.4840   H         1 RES1   0.0000
    32 H7       5.4538  10.2700   6.1937   H         1 RES1   0.0000
    33 H8       3.3062  11.4422   6.3888   H         1 RES1   0.0000
    34 H9       4.0925  10.9928   5.1412   H         1 RES1   0.0000
    35 H10      3.9666  13.2806   6.1911   H         1 RES1   0.0000
    36 H11      5.4113  12.8250   6.4796   H         1 RES1   0.0000
    37 H12      4.3233  13.2712   4.3104   H         1 RES1   0.0000
    38 H13      5.7616  12.7778   4.5722   H         1 RES1   0.0000
    39 H14      5.9676  14.7859   3.8803   H         1 RES1   0.0000
    40 H15      6.2185  14.9116   5.4230   H         1 RES1   0.0000
    41 H16      4.8359  15.3359   4.8166   H         1 RES1   0.0000
    42 H17      4.6761   7.4920   1.2916   H         1 RES1   0.0000
    43 H18      6.2230   7.7151   1.4813   H         1 RES1   0.0000
    44 H19      5.0895   9.4624   0.6639   H         1 RES1   0.0000
    45 H20      5.8054  11.0871   1.5347   H         1 RES1   0.0000
    46 H21      6.7627   9.9212   1.1086   H         1 RES1   0.0000
    47 H22      6.4363  10.1537   2.6234   H         1 RES1   0.0000
    48 H23      3.6109  10.7948   1.6256   H         1 RES1   0.0000
    49 H24      3.5543   9.8238   2.8558   H         1 RES1   0.0000
    50 H25      3.1270   9.3147   1.4359   H         1 RES1   0.0000
    51 H26      5.9778   3.5449   0.4835   H         1 RES1   0.0000
    52 H27      4.4437   3.7523   0.7694   H         1 RES1   0.0000
    53 H28      5.6129   1.1816   0.5156   H         1 RES1   0.0000
    54 H29      5.7166   2.2721  -1.5454   H         1 RES1   0.0000
    55 H30      4.1711   2.5267  -1.5040   H         1 RES1   0.0000
    56 H31      4.7216   1.0653  -1.6349   H         1 RES1   0.0000
    57 H32      3.6166   1.1376   1.7351   H         1 RES1   0.0000
    58 H33      3.4331   0.3614   0.3860   H         1 RES1   0.0000
    59 H34      2.8577   1.8101   0.5410   H         1 RES1   0.0000
@<TRIPOS>BOND
     1     1     2   ar
     2     2     3   ar
     3     3     4   ar
     4     4     5   ar
     5     5     6   ar
     6     6     1   ar
     7     7     3    1
     8     8     7    2
     9     9     7   am
    10    10     9    1
    11    11    10    1
    12    12    11    1
    13    13    12    1
    14    14    13    1
    15    15    14    1
    16    16     4    1
    17    17    16    1
    18    18    17    1
    19    19    18    1
    20    20    18    1
    21    21     6    1
    22    22    21    1
    23    23    22    1
    24    24    23    1
    25    25    23    1
    26    26     2    1
    27    27     5    1
    28    28     9    1
    29    29    10    1
    30    30    10    1
    31    31    11    1
    32    32    11    1
    33    33    12    1
    34    34    12    1
    35    35    13    1
    36    36    13    1
    37    37    14    1
    38    38    14    1
    39    39    15    1
    40    40    15    1
    41    41    15    1
    42    42    17    1
    43    43    17    1
    44    44    18    1
    45    45    19    1
    46    46    19    1
    47    47    19    1
    48    48    20    1
    49    49    20    1
    50    50    20    1
    51    51    22    1
    52    52    22    1
    53    53    23    1
    54    54    24    1
    55    55    24    1
    56    56    24    1
    57    57    25    1
    58    58    25    1
    59    59    25    1
@<TRIPOS>SUBSTRUCTURE
     1 RES1        1 GROUP             0 ****  ****    0  
