@<TRIPOS>MOLECULE
02
    30    30     1     0     0
SMALL
NO_CHARGES
****
Generated from the CSD

@<TRIPOS>ATOM
     1 C25      5.5386  -3.4034   3.1857   C.ar      1 RES2   0.0000
     2 C26      5.3816  -4.6668   3.7547   C.ar      1 RES2   0.0000
     3 C27      5.3143  -5.7981   2.9506   C.ar      1 RES2   0.0000
     4 C28      5.4092  -5.6755   1.5815   C.ar      1 RES2   0.0000
     5 C29      5.5585  -4.4279   1.0192   C.ar      1 RES2   0.0000
     6 C30      5.6167  -3.2934   1.7992   C.ar      1 RES2   0.0000
     7 N4       5.1447  -7.0614   3.5851   N.am      1 RES2   0.0000
     8 C31      4.4226  -8.0891   3.0882   C.2       1 RES2   0.0000
     9 O6       3.9226  -8.0859   1.9702   O.2       1 RES2   0.0000
    10 C32      4.2516  -9.2801   3.9698   C.3       1 RES2   0.0000
    11 C33      4.6899 -10.5748   3.2926   C.3       1 RES2   0.0000
    12 C34      4.3629 -11.8099   3.9978   C.3       1 RES2   0.0000
    13 C35      4.9084 -13.0732   3.4141   C.3       1 RES2   0.0000
    14 C36      4.3113 -13.4880   2.1171   C.3       1 RES2   0.0000
    15 H39      5.3210  -4.7548   4.6790   H         1 RES2   0.0000
    16 H40      5.3714  -6.4298   1.0405   H         1 RES2   0.0000
    17 H41      5.6208  -4.3494   0.0948   H         1 RES2   0.0000
    18 H42      5.7107  -2.4575   1.4012   H         1 RES2   0.0000
    19 H43      5.5307  -7.1777   4.3451   H         1 RES2   0.0000
    20 H44      3.3182  -9.3555   4.2249   H         1 RES2   0.0000
    21 H45      4.7709  -9.1544   4.7792   H         1 RES2   0.0000
    22 H46      4.2838 -10.6094   2.4123   H         1 RES2   0.0000
    23 H47      5.6515 -10.5403   3.1670   H         1 RES2   0.0000
    24 H48      3.3973 -11.8885   4.0392   H         1 RES2   0.0000
    25 H49      4.6847 -11.7345   4.9101   H         1 RES2   0.0000
    26 H50      5.8645 -12.9664   3.2899   H         1 RES2   0.0000
    27 H51      4.7771 -13.7897   4.0552   H         1 RES2   0.0000
    28 H52      4.7327 -14.2957   1.8152   H         1 RES2   0.0000
    29 H53      4.4442 -12.7935   1.4680   H         1 RES2   0.0000
    30 H54      3.3721 -13.6420   2.2333   H         1 RES2   0.0000
@<TRIPOS>BOND
     1     2     1   ar
     2     3     2   ar
     3     4     3   ar
     4     5     4   ar
     5     6     1   ar
     6     7     3    1
     7     8     7   am
     8     9     8    2
     9    10     8    1
    10    11    10    1
    11    12    11    1
    12    13    12    1
    13    14    13    1
    14    15     2    1
    15    16     4    1
    16    17     5    1
    17    18     6    1
    18    19     7    1
    19    20    10    1
    20    21    10    1
    21    22    11    1
    22    23    11    1
    23    24    12    1
    24    25    12    1
    25    26    13    1
    26    27    13    1
    27    28    14    1
    28    29    14    1
    29    30    14    1
    30     5     6   ar
@<TRIPOS>SUBSTRUCTURE
     1 RES2        1 GROUP             0 ****  ****    0  
