@<TRIPOS>MOLECULE
MAHXIC
    55    56     1     0     0
SMALL
NO_CHARGES
****
Generated from the CSD

@<TRIPOS>ATOM
     1 N1      11.1809   7.4829   1.6433   N.am      1 RES1   0.0000
     2 C1      12.1672   8.3551   1.4549   C.2       1 RES1   0.0000
     3 O1      13.3010   7.9926   1.1386   O.2       1 RES1   0.0000
     4 C2      11.8631   9.8206   1.6531   C.ar      1 RES1   0.0000
     5 C3      12.9530  10.6752   1.6672   C.ar      1 RES1   0.0000
     6 C4      12.8178  12.0560   1.7923   C.ar      1 RES1   0.0000
     7 C5      11.5420  12.5880   1.8823   C.ar      1 RES1   0.0000
     8 C6      10.4430  11.7546   1.8668   C.ar      1 RES1   0.0000
     9 C7      10.5814  10.3798   1.7656   C.ar      1 RES1   0.0000
    10 N2      14.0070  12.8187   1.8092   N.am      1 RES1   0.0000
    11 C8      14.1367  14.1795   1.8050   C.2       1 RES1   0.0000
    12 O2      13.1960  14.9517   1.8162   O.2       1 RES1   0.0000
    13 C9      15.5508  14.6621   1.7909   C.3       1 RES1   0.0000
    14 O3       9.5115   9.5158   1.7909   O.3       1 RES1   0.0000
    15 C10      8.1984  10.0349   1.7206   C.3       1 RES1   0.0000
    16 C11     11.3415   6.0798   1.3411   C.3       1 RES1   0.0000
    17 C12     10.0139   5.3747   1.4254   C.2       1 RES1   0.0000
    18 O4       9.0214   5.8950   1.9020   O.2       1 RES1   0.0000
    19 N3      10.0518   4.1269   0.9194   N.am      1 RES1   0.0000
    20 C13      8.9714   3.2123   0.8673   C.ar      1 RES1   0.0000
    21 C14      8.8440   2.4025  -0.2502   C.ar      1 RES1   0.0000
    22 C15      7.8256   1.4620  -0.3641   C.ar      1 RES1   0.0000
    23 C16      6.9055   1.3501   0.6874   C.ar      1 RES1   0.0000
    24 C17      7.0528   2.1423   1.8162   C.ar      1 RES1   0.0000
    25 C18      8.0802   3.0640   1.9104   C.ar      1 RES1   0.0000
    26 C19      7.8363   0.6286  -1.6180   C.2       1 RES1   0.0000
    27 O5       8.8806   0.5038  -2.2660   O.2       1 RES1   0.0000
    28 N4       6.7014   0.0671  -2.0116   N.am      1 RES1   0.0000
    29 C20      6.5936  -0.6710  -3.2557   C.3       1 RES1   0.0000
    30 O6       5.9079   0.4226   0.5553   O.3       1 RES1   0.0000
    31 C21      4.9737   0.2707   1.6194   C.3       1 RES1   0.0000
    32 H1      10.3618   7.7595   1.8457   H         1 RES1   0.0000
    33 H2      13.8171  10.2762   1.5646   H         1 RES1   0.0000
    34 H3      11.4088  13.5003   1.9976   H         1 RES1   0.0000
    35 H4       9.5504  12.1195   1.9666   H         1 RES1   0.0000
    36 H5      14.8027  12.4067   1.8022   H         1 RES1   0.0000
    37 H6      15.7263  15.2083   2.5866   H         1 RES1   0.0000
    38 H7      16.1961  13.9723   1.8134   H         1 RES1   0.0000
    39 H8      15.7662  15.2083   1.0121   H         1 RES1   0.0000
    40 H9       8.1110  10.5104   0.9011   H         1 RES1   0.0000
    41 H10      7.6111   9.2662   1.7586   H         1 RES1   0.0000
    42 H11      7.9809  10.6411   2.4882   H         1 RES1   0.0000
    43 H12     11.7275   5.9562   0.4231   H         1 RES1   0.0000
    44 H13     12.0001   5.6619   1.8584   H         1 RES1   0.0000
    45 H14     10.7877   3.9315   0.5004   H         1 RES1   0.0000
    46 H15      9.4682   2.4696  -0.9770   H         1 RES1   0.0000
    47 H16      6.4311   2.0411   2.5360   H         1 RES1   0.0000
    48 H17      8.1390   3.5608   2.6920   H         1 RES1   0.0000
    49 H18      5.9583   0.1907  -1.5435   H         1 RES1   0.0000
    50 H19      7.2919  -1.4125  -3.2894   H         1 RES1   0.0000
    51 H20      5.6712  -1.0594  -3.3372   H         1 RES1   0.0000
    52 H21      6.8391  -0.1295  -4.0907   H         1 RES1   0.0000
    53 H22      5.4222  -0.0589   2.3841   H         1 RES1   0.0000
    54 H23      4.3749  -0.3790   1.3017   H         1 RES1   0.0000
    55 H24      4.5044   1.1536   1.8359   H         1 RES1   0.0000
@<TRIPOS>BOND
     1     1     2   am
     2     2     3    2
     3     4     2    1
     4     5     4   ar
     5     6     5   ar
     6     7     6   ar
     7     8     7   ar
     8     9     4   ar
     9    10     6    1
    10    11    10   am
    11    12    11    2
    12    13    11    1
    13    14     9    1
    14    15    14    1
    15    16     1    1
    16    17    16    1
    17    18    17    2
    18    19    17   am
    19    20    19    1
    20    21    20   ar
    21    22    21   ar
    22    23    22   ar
    23    24    23   ar
    24    25    20   ar
    25    26    22    1
    26    27    26    2
    27    28    26   am
    28    29    28    1
    29    30    23    1
    30    31    30    1
    31    32     1    1
    32    33     5    1
    33    34     7    1
    34    35     8    1
    35    36    10    1
    36    37    13    1
    37    38    13    1
    38    39    13    1
    39    40    15    1
    40    41    15    1
    41    42    15    1
    42    43    16    1
    43    44    16    1
    44    45    19    1
    45    46    21    1
    46    47    24    1
    47    48    25    1
    48    49    28    1
    49    50    29    1
    50    51    29    1
    51    52    29    1
    52    53    31    1
    53    54    31    1
    54    55    31    1
    55     8     9   ar
    56    24    25   ar
@<TRIPOS>SUBSTRUCTURE
     1 RES1        1 GROUP             0 ****  ****    0  
@<TRIPOS>CRYSIN
   25.3432   11.7711   17.2886   90.0000  125.6000   90.0000    15     1
