@<TRIPOS>MOLECULE
MAHXOI
   100   101     1     0     0
SMALL
NO_CHARGES
****
Generated from the CSD

@<TRIPOS>ATOM
     1 C1       5.5794   3.7460   4.5214   C.ar      1 RES1   0.0000
     2 C2       5.5689   4.8396   5.3843   C.ar      1 RES1   0.0000
     3 C3       5.4130   6.1438   4.9689   C.ar      1 RES1   0.0000
     4 C4       5.3343   6.3763   3.5918   C.ar      1 RES1   0.0000
     5 C5       5.3856   5.3173   2.6821   C.ar      1 RES1   0.0000
     6 C6       5.4618   4.0100   3.1523   C.ar      1 RES1   0.0000
     7 C7       5.3704   7.1997   6.0188   C.2       1 RES1   0.0000
     8 O1       6.1954   7.1903   6.9404   O.2       1 RES1   0.0000
     9 N1       4.3814   8.0828   5.9400   N.am      1 RES1   0.0000
    10 C8       4.1013   9.1104   6.9244   C.3       1 RES1   0.0000
    11 C9       4.5966  10.4429   6.6118   C.3       1 RES1   0.0000
    12 C10      4.2055  11.3291   6.0441   C.3       1 RES1   0.0000
    13 C11      4.6906  12.7370   5.8384   C.3       1 RES1   0.0000
    14 C12      5.0563  13.3341   4.9422   C.3       1 RES1   0.0000
    15 C13      5.5655  14.7137   4.7485   C.3       1 RES1   0.0000
    16 O2       5.2167   7.6774   3.1910   O.3       1 RES1   0.0000
    17 C14      5.3452   7.9759   1.8019   C.3       1 RES1   0.0000
    18 C15      5.1506   9.4592   1.6416   C.3       1 RES1   0.0000
    19 C16      6.0844  10.1915   1.7311   C.3       1 RES1   0.0000
    20 C17      3.7318   9.8866   1.9154   C.3       1 RES1   0.0000
    21 O3       5.4283   2.9509   2.2974   O.3       1 RES1   0.0000
    22 C18      5.1931   3.1520   0.8989   C.3       1 RES1   0.0000
    23 C19      4.8928   1.7976   0.2698   C.3       1 RES1   0.0000
    24 C20      4.8752   1.9264  -1.2436   C.3       1 RES1   0.0000
    25 C21      3.5788   1.2256   0.7801   C.3       1 RES1   0.0000
    26 C22      5.7006   2.3884   5.1732   C.2       1 RES1   0.0000
    27 O4       5.8561   2.2972   6.3834   O.2       1 RES1   0.0000
    28 N2       5.6212   1.3167   4.3825   N.am      1 RES1   0.0000
    29 C23      5.6918  -0.0346   4.8968   C.3       1 RES1   0.0000
    30 C24      5.5946  -0.9899   3.7280   C.2       1 RES1   0.0000
    31 O5       5.5088  -0.5625   2.5819   O.2       1 RES1   0.0000
    32 N3       5.6179  -2.2941   4.0579   N.am      1 RES1   0.0000
    33 C25      5.5386  -3.4034   3.1857   C.ar      1 RES1   0.0000
    34 C26      5.3816  -4.6668   3.7547   C.ar      1 RES1   0.0000
    35 C27      5.3143  -5.7981   2.9506   C.ar      1 RES1   0.0000
    36 C28      5.4092  -5.6755   1.5815   C.ar      1 RES1   0.0000
    37 C29      5.5585  -4.4279   1.0192   C.ar      1 RES1   0.0000
    38 C30      5.6167  -3.2934   1.7992   C.ar      1 RES1   0.0000
    39 N4       5.1447  -7.0614   3.5851   N.am      1 RES1   0.0000
    40 C31      4.4226  -8.0891   3.0882   C.2       1 RES1   0.0000
    41 O6       3.9226  -8.0859   1.9702   O.2       1 RES1   0.0000
    42 C32      4.2516  -9.2801   3.9698   C.3       1 RES1   0.0000
    43 C33      4.6899 -10.5748   3.2926   C.3       1 RES1   0.0000
    44 C34      4.3629 -11.8099   3.9978   C.3       1 RES1   0.0000
    45 C35      4.9084 -13.0732   3.4141   C.3       1 RES1   0.0000
    46 C36      4.3113 -13.4880   2.1171   C.3       1 RES1   0.0000
    47 H1       5.6718   4.6762   6.2953   H         1 RES1   0.0000
    48 H2       5.3675   5.4870   1.7672   H         1 RES1   0.0000
    49 H3       3.8664   8.0388   5.2521   H         1 RES1   0.0000
    50 H4       4.4832   8.8338   7.7712   H         1 RES1   0.0000
    51 H5       3.1400   9.1607   7.0446   H         1 RES1   0.0000
    52 H6       4.8086  10.8105   7.4840   H         1 RES1   0.0000
    53 H7       5.4538  10.2700   6.1937   H         1 RES1   0.0000
    54 H8       3.3062  11.4422   6.3888   H         1 RES1   0.0000
    55 H9       4.0925  10.9928   5.1412   H         1 RES1   0.0000
    56 H10      3.9666  13.2806   6.1911   H         1 RES1   0.0000
    57 H11      5.4113  12.8250   6.4796   H         1 RES1   0.0000
    58 H12      4.3233  13.2712   4.3104   H         1 RES1   0.0000
    59 H13      5.7616  12.7778   4.5722   H         1 RES1   0.0000
    60 H14      5.9676  14.7859   3.8803   H         1 RES1   0.0000
    61 H15      6.2185  14.9116   5.4230   H         1 RES1   0.0000
    62 H16      4.8359  15.3359   4.8166   H         1 RES1   0.0000
    63 H17      4.6761   7.4920   1.2916   H         1 RES1   0.0000
    64 H18      6.2230   7.7151   1.4813   H         1 RES1   0.0000
    65 H19      5.0895   9.4624   0.6639   H         1 RES1   0.0000
    66 H20      5.8054  11.0871   1.5347   H         1 RES1   0.0000
    67 H21      6.7627   9.9212   1.1086   H         1 RES1   0.0000
    68 H22      6.4363  10.1537   2.6234   H         1 RES1   0.0000
    69 H23      3.6109  10.7948   1.6256   H         1 RES1   0.0000
    70 H24      3.5543   9.8238   2.8558   H         1 RES1   0.0000
    71 H25      3.1270   9.3147   1.4359   H         1 RES1   0.0000
    72 H26      5.9778   3.5449   0.4835   H         1 RES1   0.0000
    73 H27      4.4437   3.7523   0.7694   H         1 RES1   0.0000
    74 H28      5.6129   1.1816   0.5156   H         1 RES1   0.0000
    75 H29      5.7166   2.2721  -1.5454   H         1 RES1   0.0000
    76 H30      4.1711   2.5267  -1.5040   H         1 RES1   0.0000
    77 H31      4.7216   1.0653  -1.6349   H         1 RES1   0.0000
    78 H32      3.6166   1.1376   1.7351   H         1 RES1   0.0000
    79 H33      3.4331   0.3614   0.3860   H         1 RES1   0.0000
    80 H34      2.8577   1.8101   0.5410   H         1 RES1   0.0000
    81 H35      5.5250   1.4330   3.5357   H         1 RES1   0.0000
    82 H36      4.9634  -0.1917   5.5165   H         1 RES1   0.0000
    83 H37      6.5300  -0.1666   5.3669   H         1 RES1   0.0000
    84 H38      5.6889  -2.4764   4.8954   H         1 RES1   0.0000
    85 H39      5.3210  -4.7548   4.6790   H         1 RES1   0.0000
    86 H40      5.3714  -6.4298   1.0405   H         1 RES1   0.0000
    87 H41      5.6208  -4.3494   0.0948   H         1 RES1   0.0000
    88 H42      5.7107  -2.4575   1.4012   H         1 RES1   0.0000
    89 H43      5.5307  -7.1777   4.3451   H         1 RES1   0.0000
    90 H44      3.3182  -9.3555   4.2249   H         1 RES1   0.0000
    91 H45      4.7709  -9.1544   4.7792   H         1 RES1   0.0000
    92 H46      4.2838 -10.6094   2.4123   H         1 RES1   0.0000
    93 H47      5.6515 -10.5403   3.1670   H         1 RES1   0.0000
    94 H48      3.3973 -11.8885   4.0392   H         1 RES1   0.0000
    95 H49      4.6847 -11.7345   4.9101   H         1 RES1   0.0000
    96 H50      5.8645 -12.9664   3.2899   H         1 RES1   0.0000
    97 H51      4.7771 -13.7897   4.0552   H         1 RES1   0.0000
    98 H52      4.7327 -14.2957   1.8152   H         1 RES1   0.0000
    99 H53      4.4442 -12.7935   1.4680   H         1 RES1   0.0000
   100 H54      3.3721 -13.6420   2.2333   H         1 RES1   0.0000
@<TRIPOS>BOND
     1     1     2   ar
     2     2     3   ar
     3     3     4   ar
     4     4     5   ar
     5     5     6   ar
     6     6     1   ar
     7     7     3    1
     8     8     7    2
     9     9     7   am
    10    10     9    1
    11    11    10    1
    12    12    11    1
    13    13    12    1
    14    14    13    1
    15    15    14    1
    16    16     4    1
    17    17    16    1
    18    18    17    1
    19    19    18    1
    20    20    18    1
    21    21     6    1
    22    22    21    1
    23    23    22    1
    24    24    23    1
    25    25    23    1
    26    26     1    1
    27    27    26    2
    28    28    26   am
    29    29    28    1
    30    30    29    1
    31    31    30    2
    32    32    30   am
    33    33    32    1
    34    34    33   ar
    35    35    34   ar
    36    36    35   ar
    37    37    36   ar
    38    38    33   ar
    39    39    35    1
    40    40    39   am
    41    41    40    2
    42    42    40    1
    43    43    42    1
    44    44    43    1
    45    45    44    1
    46    46    45    1
    47    47     2    1
    48    48     5    1
    49    49     9    1
    50    50    10    1
    51    51    10    1
    52    52    11    1
    53    53    11    1
    54    54    12    1
    55    55    12    1
    56    56    13    1
    57    57    13    1
    58    58    14    1
    59    59    14    1
    60    60    15    1
    61    61    15    1
    62    62    15    1
    63    63    17    1
    64    64    17    1
    65    65    18    1
    66    66    19    1
    67    67    19    1
    68    68    19    1
    69    69    20    1
    70    70    20    1
    71    71    20    1
    72    72    22    1
    73    73    22    1
    74    74    23    1
    75    75    24    1
    76    76    24    1
    77    77    24    1
    78    78    25    1
    79    79    25    1
    80    80    25    1
    81    81    28    1
    82    82    29    1
    83    83    29    1
    84    84    32    1
    85    85    34    1
    86    86    36    1
    87    87    37    1
    88    88    38    1
    89    89    39    1
    90    90    42    1
    91    91    42    1
    92    92    43    1
    93    93    43    1
    94    94    44    1
    95    95    44    1
    96    96    45    1
    97    97    45    1
    98    98    46    1
    99    99    46    1
   100   100    46    1
   101    37    38   ar
@<TRIPOS>SUBSTRUCTURE
     1 RES1        1 GROUP             0 ****  ****    0  
@<TRIPOS>CRYSIN
   17.0080   31.4260   14.3790   90.0000  111.7300   90.0000    15     1
