@<TRIPOS>MOLECULE
02
    22    22     1     0     0
SMALL
NO_CHARGES
****
Generated from the CSD

@<TRIPOS>ATOM
     1 C13      8.9714   3.2123   0.8673   C.ar      1 RES2   0.0000
     2 C14      8.8440   2.4025  -0.2502   C.ar      1 RES2   0.0000
     3 C15      7.8256   1.4620  -0.3641   C.ar      1 RES2   0.0000
     4 C16      6.9055   1.3501   0.6874   C.ar      1 RES2   0.0000
     5 C17      7.0528   2.1423   1.8162   C.ar      1 RES2   0.0000
     6 C18      8.0802   3.0640   1.9104   C.ar      1 RES2   0.0000
     7 C19      7.8363   0.6286  -1.6180   C.2       1 RES2   0.0000
     8 O5       8.8806   0.5038  -2.2660   O.2       1 RES2   0.0000
     9 N4       6.7014   0.0671  -2.0116   N.am      1 RES2   0.0000
    10 C20      6.5936  -0.6710  -3.2557   C.3       1 RES2   0.0000
    11 O6       5.9079   0.4226   0.5553   O.3       1 RES2   0.0000
    12 C21      4.9737   0.2707   1.6194   C.3       1 RES2   0.0000
    13 H15      9.4682   2.4696  -0.9770   H         1 RES2   0.0000
    14 H16      6.4311   2.0411   2.5360   H         1 RES2   0.0000
    15 H17      8.1390   3.5608   2.6920   H         1 RES2   0.0000
    16 H18      5.9583   0.1907  -1.5435   H         1 RES2   0.0000
    17 H19      7.2919  -1.4125  -3.2894   H         1 RES2   0.0000
    18 H20      5.6712  -1.0594  -3.3372   H         1 RES2   0.0000
    19 H21      6.8391  -0.1295  -4.0907   H         1 RES2   0.0000
    20 H22      5.4222  -0.0589   2.3841   H         1 RES2   0.0000
    21 H23      4.3749  -0.3790   1.3017   H         1 RES2   0.0000
    22 H24      4.5044   1.1536   1.8359   H         1 RES2   0.0000
@<TRIPOS>BOND
     1     2     1   ar
     2     3     2   ar
     3     4     3   ar
     4     5     4   ar
     5     6     1   ar
     6     7     3    1
     7     8     7    2
     8     9     7   am
     9    10     9    1
    10    11     4    1
    11    12    11    1
    12    13     2    1
    13    14     5    1
    14    15     6    1
    15    16     9    1
    16    17    10    1
    17    18    10    1
    18    19    10    1
    19    20    12    1
    20    21    12    1
    21    22    12    1
    22     5     6   ar
@<TRIPOS>SUBSTRUCTURE
     1 RES2        1 GROUP             0 ****  ****    0  
