@<TRIPOS>MOLECULE
02
    22    23     1     0     0
SMALL
NO_CHARGES
****
Generated from the CSD

@<TRIPOS>ATOM
     1 N1       9.5316  15.5939   3.6984   N.1       1 RES2   0.0000
     2 C1       8.9356  14.6935   4.0479   C.1       1 RES2   0.0000
     3 C2       8.2210  13.5389   4.5175   C.ar      1 RES2   0.0000
     4 C3       8.7103  12.7884   5.5420   C.ar      1 RES2   0.0000
     5 C4       7.0219  13.1531   3.9702   C.ar      1 RES2   0.0000
     6 C5       8.0532  11.6752   5.9747   C.ar      1 RES2   0.0000
     7 C6       6.3600  12.0260   4.4325   C.ar      1 RES2   0.0000
     8 C7       6.8480  11.2636   5.4384   C.ar      1 RES2   0.0000
     9 C8       6.1569  10.0368   5.9155   C.ar      1 RES2   0.0000
    10 C9       6.4992   9.3844   7.0472   C.ar      1 RES2   0.0000
    11 C10      5.0933   9.5034   5.2554   C.ar      1 RES2   0.0000
    12 C11      5.8443   8.2501   7.5299   C.ar      1 RES2   0.0000
    13 C12      4.4233   8.3888   5.7066   C.ar      1 RES2   0.0000
    14 C13      4.7905   7.7719   6.8364   C.ar      1 RES2   0.0000
    15 H1       9.5722  13.0632   5.9692   H         1 RES2   0.0000
    16 H2       6.5811  13.6965   3.1695   H         1 RES2   0.0000
    17 H3       8.5219  11.0271   6.6423   H         1 RES2   0.0000
    18 H4       5.4625  11.7764   4.0053   H         1 RES2   0.0000
    19 H5       7.3395   9.7047   7.5576   H         1 RES2   0.0000
    20 H6       4.7401   9.9371   4.4029   H         1 RES2   0.0000
    21 H7       6.1480   7.7740   8.3546   H         1 RES2   0.0000
    22 H8       3.7121   7.9579   5.1703   H         1 RES2   0.0000
@<TRIPOS>BOND
     1     1     2    3
     2     2     3    1
     3     3     4   ar
     4     4     6   ar
     5     5     3   ar
     6     6     8   ar
     7     7     5   ar
     8     8     7   ar
     9     9     8    1
    10    10     9   ar
    11    11     9   ar
    12    12    10   ar
    13    13    11   ar
    14    14    12   ar
    15    15     4    1
    16    16     5    1
    17    17     6    1
    18    18     7    1
    19    19    10    1
    20    20    11    1
    21    21    12    1
    22    22    13    1
    23    13    14   ar
@<TRIPOS>SUBSTRUCTURE
     1 RES2        1 GROUP             0 ****  ****    0  
