@<TRIPOS>MOLECULE
01
    30    30     1     0     0
SMALL
NO_CHARGES
****
Generated from the CSD

@<TRIPOS>ATOM
     1 O3      -1.7480  -4.8928  15.5886   O.2       1 RES1   0.0000
     2 O4      -4.5575  -1.4650  19.6105   O.3       1 RES1   0.0000
     3 N2      -3.6965  -2.0529  18.8302   N.3       1 RES1   0.0000
     4 C25     -1.0676  -4.0901  16.1674   C.2       1 RES1   0.0000
     5 C26     -1.5629  -3.2429  17.3139   C.3       1 RES1   0.0000
     6 C27     -2.3652  -2.0693  16.7684   C.3       1 RES1   0.0000
     7 C28     -2.4485  -4.0508  18.2366   C.3       1 RES1   0.0000
     8 C29     -3.0354  -1.1695  17.8150   C.3       1 RES1   0.0000
     9 C30     -3.1112  -3.3215  19.3757   C.3       1 RES1   0.0000
    10 C31     -1.9763  -0.2728  18.5232   C.3       1 RES1   0.0000
    11 C32     -4.1064  -0.3205  17.1530   C.3       1 RES1   0.0000
    12 C33     -2.1267  -3.0519  20.4704   C.3       1 RES1   0.0000
    13 C34     -4.2413  -4.1651  19.9083   C.3       1 RES1   0.0000
    14 H31     -0.8193  -2.8632  17.8945   H         1 RES1   0.0000
    15 H32     -1.7864  -1.4924  16.2081   H         1 RES1   0.0000
    16 H33     -3.0439  -2.4000  16.1692   H         1 RES1   0.0000
    17 H34     -3.1029  -4.4697  17.6671   H         1 RES1   0.0000
    18 H35     -1.8985  -4.7935  18.5898   H         1 RES1   0.0000
    19 H36     -2.0502  -0.3562  19.5162   H         1 RES1   0.0000
    20 H37     -1.0691  -0.5489  18.3291   H         1 RES1   0.0000
    21 H38     -2.0421   0.6580  18.3420   H         1 RES1   0.0000
    22 H39     -4.5682   0.2137  17.6819   H         1 RES1   0.0000
    23 H40     -3.6703   0.2179  16.4170   H         1 RES1   0.0000
    24 H41     -4.7019  -0.9195  16.6315   H         1 RES1   0.0000
    25 H42     -2.4908  -3.1205  21.3377   H         1 RES1   0.0000
    26 H43     -1.4024  -3.7923  20.4593   H         1 RES1   0.0000
    27 H44     -1.6352  -2.2613  20.3706   H         1 RES1   0.0000
    28 H45     -4.2952  -4.1454  20.8902   H         1 RES1   0.0000
    29 H46     -5.1225  -3.8347  19.6142   H         1 RES1   0.0000
    30 H47     -4.2082  -5.0872  19.6605   H         1 RES1   0.0000
@<TRIPOS>BOND
     1     1     4    2
     2     2     3    1
     3     3     8    1
     4     5     4    1
     5     6     5    1
     6     7     5    1
     7     8     6    1
     8     9     3    1
     9    10     8    1
    10    11     8    1
    11    12     9    1
    12    13     9    1
    13    14     5    1
    14    15     6    1
    15    16     6    1
    16    17     7    1
    17    18     7    1
    18    19    10    1
    19    20    10    1
    20    21    10    1
    21    22    11    1
    22    23    11    1
    23    24    11    1
    24    25    12    1
    25    26    12    1
    26    27    12    1
    27    28    13    1
    28    29    13    1
    29    30    13    1
    30     7     9    1
@<TRIPOS>SUBSTRUCTURE
     1 RES1        1 GROUP             0 ****  ****    0  
