@<TRIPOS>MOLECULE
MUDKUT
    58    60     1     0     0
SMALL
NO_CHARGES
****
Generated from the CSD

@<TRIPOS>ATOM
     1 Cl1      6.7968  -2.4097  18.4421   Cl        1 RES1   0.0000
     2 Cl2      1.3427   4.6517  24.8162   Cl        1 RES1   0.0000
     3 O1       5.1200  -0.1223  24.6918   O.2       1 RES1   0.0000
     4 O2       3.6405   2.4181  20.8883   O.2       1 RES1   0.0000
     5 O3      -0.4169   4.4053  18.6938   O.2       1 RES1   0.0000
     6 O4       7.1847   1.7820  25.3094   O.2       1 RES1   0.0000
     7 O5       6.8016   2.0440  27.4043   O.2       1 RES1   0.0000
     8 N1       4.9037   1.1064  22.7798   N.am      1 RES1   0.0000
     9 H1       4.6607   1.8842  22.5041   H         1 RES1   0.0000
    10 N2       2.8636   1.1051  19.2555   N.am      1 RES1   0.0000
    11 H2       3.0070   0.3989  18.7867   H         1 RES1   0.0000
    12 N3      -1.3118   2.5016  19.4641   N.am      1 RES1   0.0000
    13 N4       6.4748   2.1054  26.2341   N.pl3     1 RES1   0.0000
    14 C1       4.8664   0.9138  24.1167   C.2       1 RES1   0.0000
    15 C2       5.2888   0.1966  21.7847   C.ar      1 RES1   0.0000
    16 C3       4.7736   0.3520  20.4935   C.ar      1 RES1   0.0000
    17 C4       5.2473  -0.4634  19.4774   C.ar      1 RES1   0.0000
    18 H3       4.9280  -0.3542  18.6107   H         1 RES1   0.0000
    19 C5       6.1884  -1.4347  19.7410   C.ar      1 RES1   0.0000
    20 C6       6.6657  -1.6153  21.0155   C.ar      1 RES1   0.0000
    21 H4       7.2864  -2.2851  21.1889   H         1 RES1   0.0000
    22 C7       6.2231  -0.8017  22.0354   C.ar      1 RES1   0.0000
    23 H5       6.5518  -0.9218  22.8966   H         1 RES1   0.0000
    24 C8       3.7131   1.3851  20.2211   C.2       1 RES1   0.0000
    25 C9       1.7011   1.9110  18.9340   C.3       1 RES1   0.0000
    26 H6       1.8715   2.4329  18.1351   H         1 RES1   0.0000
    27 H7       1.5124   2.5232  19.6620   H         1 RES1   0.0000
    28 C10      0.5175   1.0011  18.7092   C.3       1 RES1   0.0000
    29 H8       0.3652   0.4812  19.5145   H         1 RES1   0.0000
    30 H9       0.7310   0.3810  17.9948   H         1 RES1   0.0000
    31 C11     -0.7592   1.7403  18.3525   C.3       1 RES1   0.0000
    32 H10     -0.5770   2.3456  17.6166   H         1 RES1   0.0000
    33 H11     -1.4208   1.0984  18.0518   H         1 RES1   0.0000
    34 C12     -1.1084   3.8160  19.5278   C.2       1 RES1   0.0000
    35 C13     -1.7153   4.5751  20.6614   C.3       1 RES1   0.0000
    36 H12     -2.6592   4.3588  20.7132   H         1 RES1   0.0000
    37 H13     -1.6399   5.5246  20.4778   H         1 RES1   0.0000
    38 C14     -1.0703   4.2844  22.0042   C.3       1 RES1   0.0000
    39 H14     -0.1116   4.2020  21.8786   H         1 RES1   0.0000
    40 H15     -1.2252   5.0384  22.5945   H         1 RES1   0.0000
    41 C15     -1.5786   3.0332  22.6725   C.3       1 RES1   0.0000
    42 H16     -1.1394   2.9399  23.5316   H         1 RES1   0.0000
    43 H17     -2.5288   3.1334  22.8371   H         1 RES1   0.0000
    44 C16     -1.3559   1.7741  21.8755   C.3       1 RES1   0.0000
    45 H18     -1.6852   1.0210  22.3900   H         1 RES1   0.0000
    46 H19     -0.4016   1.6510  21.7526   H         1 RES1   0.0000
    47 C17     -2.0249   1.7592  20.5099   C.3       1 RES1   0.0000
    48 H20     -2.1209   0.8374  20.2233   H         1 RES1   0.0000
    49 H21     -2.9161   2.1313  20.5991   H         1 RES1   0.0000
    50 C18      4.4230   2.1390  24.8642   C.ar      1 RES1   0.0000
    51 C19      5.1468   2.6552  25.9326   C.ar      1 RES1   0.0000
    52 C20      4.7234   3.7317  26.6627   C.ar      1 RES1   0.0000
    53 H22      5.2307   4.0393  27.3798   H         1 RES1   0.0000
    54 C21      3.5416   4.3558  26.3307   C.ar      1 RES1   0.0000
    55 H23      3.2426   5.0940  26.8114   H         1 RES1   0.0000
    56 C22      2.8119   3.8627  25.2690   C.ar      1 RES1   0.0000
    57 C23      3.2274   2.7623  24.5488   C.ar      1 RES1   0.0000
    58 H24      2.7031   2.4379  23.8527   H         1 RES1   0.0000
@<TRIPOS>BOND
     1     1    19    1
     2     2    56    1
     3     3    14    2
     4     4    24    2
     5     5    34    2
     6     6    13    2
     7     7    13    2
     8     8     9    1
     9    10    11    1
    10    12    31    1
    11    13    51    1
    12    14     8   am
    13    15     8    1
    14    16    15   ar
    15    17    16   ar
    16    18    17    1
    17    19    17   ar
    18    20    19   ar
    19    21    20    1
    20    22    15   ar
    21    23    22    1
    22    24    10   am
    23    25    10    1
    24    26    25    1
    25    27    25    1
    26    28    25    1
    27    29    28    1
    28    30    28    1
    29    31    28    1
    30    32    31    1
    31    33    31    1
    32    34    12   am
    33    35    34    1
    34    36    35    1
    35    37    35    1
    36    38    35    1
    37    39    38    1
    38    40    38    1
    39    41    38    1
    40    42    41    1
    41    43    41    1
    42    44    41    1
    43    45    44    1
    44    46    44    1
    45    47    12    1
    46    48    47    1
    47    49    47    1
    48    50    14    1
    49    51    50   ar
    50    52    51   ar
    51    53    52    1
    52    54    52   ar
    53    55    54    1
    54    56    54   ar
    55    57    50   ar
    56    58    57    1
    57    16    24    1
    58    20    22   ar
    59    44    47    1
    60    56    57   ar
@<TRIPOS>SUBSTRUCTURE
     1 RES1        1 GROUP             0 ****  ****    0  
@<TRIPOS>CRYSIN
   10.2854    9.9221   23.8491   90.0000   94.2440   90.0000   231     1
