@<TRIPOS>MOLECULE
01
    27    28     1     0     0
SMALL
NO_CHARGES
****
Generated from the CSD

@<TRIPOS>ATOM
     1 Cl1      6.7968  -2.4097  18.4421   Cl        1 RES1   0.0000
     2 Cl2      1.3427   4.6517  24.8162   Cl        1 RES1   0.0000
     3 O1       5.1200  -0.1223  24.6918   O.2       1 RES1   0.0000
     4 O4       7.1847   1.7820  25.3094   O.2       1 RES1   0.0000
     5 O5       6.8016   2.0440  27.4043   O.2       1 RES1   0.0000
     6 N1       4.9037   1.1064  22.7798   N.am      1 RES1   0.0000
     7 H1       4.6607   1.8842  22.5041   H         1 RES1   0.0000
     8 N4       6.4748   2.1054  26.2341   N.pl3     1 RES1   0.0000
     9 C1       4.8664   0.9138  24.1167   C.2       1 RES1   0.0000
    10 C2       5.2888   0.1966  21.7847   C.ar      1 RES1   0.0000
    11 C3       4.7736   0.3520  20.4935   C.ar      1 RES1   0.0000
    12 C4       5.2473  -0.4634  19.4774   C.ar      1 RES1   0.0000
    13 H3       4.9280  -0.3542  18.6107   H         1 RES1   0.0000
    14 C5       6.1884  -1.4347  19.7410   C.ar      1 RES1   0.0000
    15 C6       6.6657  -1.6153  21.0155   C.ar      1 RES1   0.0000
    16 H4       7.2864  -2.2851  21.1889   H         1 RES1   0.0000
    17 C7       6.2231  -0.8017  22.0354   C.ar      1 RES1   0.0000
    18 H5       6.5518  -0.9218  22.8966   H         1 RES1   0.0000
    19 C18      4.4230   2.1390  24.8642   C.ar      1 RES1   0.0000
    20 C19      5.1468   2.6552  25.9326   C.ar      1 RES1   0.0000
    21 C20      4.7234   3.7317  26.6627   C.ar      1 RES1   0.0000
    22 H22      5.2307   4.0393  27.3798   H         1 RES1   0.0000
    23 C21      3.5416   4.3558  26.3307   C.ar      1 RES1   0.0000
    24 H23      3.2426   5.0940  26.8114   H         1 RES1   0.0000
    25 C22      2.8119   3.8627  25.2690   C.ar      1 RES1   0.0000
    26 C23      3.2274   2.7623  24.5488   C.ar      1 RES1   0.0000
    27 H24      2.7031   2.4379  23.8527   H         1 RES1   0.0000
@<TRIPOS>BOND
     1     1    14    1
     2     2    25    1
     3     3     9    2
     4     4     8    2
     5     5     8    2
     6     6     7    1
     7     8    20    1
     8     9     6   am
     9    10     6    1
    10    11    10   ar
    11    12    11   ar
    12    13    12    1
    13    14    12   ar
    14    15    14   ar
    15    16    15    1
    16    17    10   ar
    17    18    17    1
    18    19     9    1
    19    20    19   ar
    20    21    20   ar
    21    22    21    1
    22    23    21   ar
    23    24    23    1
    24    25    23   ar
    25    26    19   ar
    26    27    26    1
    27    15    17   ar
    28    25    26   ar
@<TRIPOS>SUBSTRUCTURE
     1 RES1        1 GROUP             0 ****  ****    0  
