@<TRIPOS>MOLECULE
02
    18    18     1     0     0
SMALL
NO_CHARGES
****
Generated from the CSD

@<TRIPOS>ATOM
     1 O3      -0.4169   4.4053  18.6938   O.2       1 RES2   0.0000
     2 N3      -1.3118   2.5016  19.4641   N.am      1 RES2   0.0000
     3 C12     -1.1084   3.8160  19.5278   C.2       1 RES2   0.0000
     4 C13     -1.7153   4.5751  20.6614   C.3       1 RES2   0.0000
     5 H12     -2.6592   4.3588  20.7132   H         1 RES2   0.0000
     6 H13     -1.6399   5.5246  20.4778   H         1 RES2   0.0000
     7 C14     -1.0703   4.2844  22.0042   C.3       1 RES2   0.0000
     8 H14     -0.1116   4.2020  21.8786   H         1 RES2   0.0000
     9 H15     -1.2252   5.0384  22.5945   H         1 RES2   0.0000
    10 C15     -1.5786   3.0332  22.6725   C.3       1 RES2   0.0000
    11 H16     -1.1394   2.9399  23.5316   H         1 RES2   0.0000
    12 H17     -2.5288   3.1334  22.8371   H         1 RES2   0.0000
    13 C16     -1.3559   1.7741  21.8755   C.3       1 RES2   0.0000
    14 H18     -1.6852   1.0210  22.3900   H         1 RES2   0.0000
    15 H19     -0.4016   1.6510  21.7526   H         1 RES2   0.0000
    16 C17     -2.0249   1.7592  20.5099   C.3       1 RES2   0.0000
    17 H20     -2.1209   0.8374  20.2233   H         1 RES2   0.0000
    18 H21     -2.9161   2.1313  20.5991   H         1 RES2   0.0000
@<TRIPOS>BOND
     1     1     3    2
     2     3     2   am
     3     4     3    1
     4     5     4    1
     5     6     4    1
     6     7     4    1
     7     8     7    1
     8     9     7    1
     9    10     7    1
    10    11    10    1
    11    12    10    1
    12    13    10    1
    13    14    13    1
    14    15    13    1
    15    16     2    1
    16    17    16    1
    17    18    16    1
    18    13    16    1
@<TRIPOS>SUBSTRUCTURE
     1 RES2        1 GROUP             0 ****  ****    0  
