@<TRIPOS>MOLECULE
NATPEG
    58    60     1     0     0
SMALL
NO_CHARGES
****
Generated from the CSD

@<TRIPOS>ATOM
     1 O1       3.3145   3.8984  14.1290   O.2       1 RES1   0.0000
     2 O2       5.0379   2.0790   9.5838   O.2       1 RES1   0.0000
     3 O3       1.7100  -1.4233   4.4486   O.2       1 RES1   0.0000
     4 N1       5.8799   4.7770  11.8417   N.ar      1 RES1   0.0000
     5 O4       8.4438   6.4698  10.0740   O.2       1 RES1   0.0000
     6 N2       3.9300   3.0205  12.1229   N.am      1 RES1   0.0000
     7 N3       4.4109   0.0077  10.2765   N.am      1 RES1   0.0000
     8 N4       7.3066   4.5721   9.5541   N.am      1 RES1   0.0000
     9 N5       0.9415  -2.0253   6.4702   N.am      1 RES1   0.0000
    10 C1       5.1722   4.8677  12.9732   C.ar      1 RES1   0.0000
    11 C2       2.9611  -0.3212   7.7425   C.2       1 RES1   0.0000
    12 H1       2.5327  -0.8361   8.3879   H         1 RES1   0.0000
    13 C3       2.7106  -0.3944   6.3607   C.2       1 RES1   0.0000
    14 C4       1.7550  -1.3007   5.6807   C.2       1 RES1   0.0000
    15 C5       3.9507   0.6407   8.0106   C.2       1 RES1   0.0000
    16 C6       6.9126   5.6133  11.6846   C.ar      1 RES1   0.0000
    17 C7       4.0424   3.8866  13.1319   C.2       1 RES1   0.0000
    18 C8       3.0178   1.8944  12.1430   C.3       1 RES1   0.0000
    19 H2       2.6437   1.7683  11.2573   H         1 RES1   0.0000
    20 H3       2.2874   2.0849  12.7520   H         1 RES1   0.0000
    21 C9       3.5710   0.5342   5.7189   C.2       1 RES1   0.0000
    22 C10      5.3527   2.1641   6.6076   C.2       1 RES1   0.0000
    23 H4       5.7442   2.4744   7.3919   H         1 RES1   0.0000
    24 C11      5.4667   2.4779   4.1150   C.2       1 RES1   0.0000
    25 H5       5.9317   2.9555   3.4658   H         1 RES1   0.0000
    26 C12      4.3579   1.2038   6.7736   C.2       1 RES1   0.0000
    27 C13      7.3158   6.5076  12.6697   C.ar      1 RES1   0.0000
    28 H6       8.0772   7.0293  12.5504   H         1 RES1   0.0000
    29 C14      3.6488   0.7554   4.3444   C.2       1 RES1   0.0000
    30 H7       3.0563   0.2605   3.8270   H         1 RES1   0.0000
    31 C15      4.8551   0.2072  11.6480   C.3       1 RES1   0.0000
    32 H8       5.5386   0.8955  11.6627   H         1 RES1   0.0000
    33 H9       5.2539  -0.6143  11.9749   H         1 RES1   0.0000
    34 C16      6.5674   6.6109  13.8308   C.ar      1 RES1   0.0000
    35 H10      6.8047   7.2149  14.4971   H         1 RES1   0.0000
    36 C17      3.7176   0.6140  12.5811   C.3       1 RES1   0.0000
    37 H11      3.0669  -0.1043  12.6180   H         1 RES1   0.0000
    38 H12      4.0719   0.7384  13.4754   H         1 RES1   0.0000
    39 C18      4.4856   1.6098   3.6384   C.2       1 RES1   0.0000
    40 H13      4.3754   1.6013   2.7144   H         1 RES1   0.0000
    41 C19      4.5112   0.9766   9.3368   C.2       1 RES1   0.0000
    42 C20      7.6208   5.5894  10.3618   C.2       1 RES1   0.0000
    43 C21      5.4537   5.7907  13.9764   C.ar      1 RES1   0.0000
    44 H14      4.9091   5.8574  14.7278   H         1 RES1   0.0000
    45 C22      5.8436   2.7253   5.4286   C.2       1 RES1   0.0000
    46 H15      6.5191   3.3550   5.5372   H         1 RES1   0.0000
    47 C23     -0.0391  -2.9233   5.8939   C.3       1 RES1   0.0000
    48 H16     -0.5535  -2.4546   5.2320   H         1 RES1   0.0000
    49 H17     -0.6232  -3.2446   6.5845   H         1 RES1   0.0000
    50 H18      0.4099  -3.6658   5.4836   H         1 RES1   0.0000
    51 C24      7.8118   4.5003   8.1963   C.3       1 RES1   0.0000
    52 H19      7.1966   4.9359   7.6027   H         1 RES1   0.0000
    53 H20      7.9075   3.5801   7.9382   H         1 RES1   0.0000
    54 H21      8.6656   4.9362   8.1491   H         1 RES1   0.0000
    55 H22      4.5152   3.0822  11.4449   H         1 RES1   0.0000
    56 H23      4.1484  -0.7749  10.0422   H         1 RES1   0.0000
    57 H24      0.9275  -1.9313   7.3359   H         1 RES1   0.0000
    58 H25      6.6103   4.0518   9.8022   H         1 RES1   0.0000
@<TRIPOS>BOND
     1     1    17    2
     2     2    41    2
     3     3    14    2
     4     4    10   ar
     5     5    42    2
     6     6    17   am
     7     7    31    1
     8     8    42   am
     9     9    14   am
    10    10    17    1
    11    11    12    1
    12    13    11    1
    13    14    13    1
    14    15    11    2
    15    16     4   ar
    16    18     6    1
    17    19    18    1
    18    20    18    1
    19    21    13    2
    20    22    23    1
    21    24    25    1
    22    26    15    1
    23    27    16   ar
    24    28    27    1
    25    29    21    1
    26    30    29    1
    27    31    32    1
    28    33    31    1
    29    34    27   ar
    30    35    34    1
    31    36    18    1
    32    37    36    1
    33    38    36    1
    34    39    24    1
    35    40    39    1
    36    41     7   am
    37    42    16    1
    38    43    10   ar
    39    44    43    1
    40    45    22    1
    41    46    45    1
    42    47     9    1
    43    48    47    1
    44    49    47    1
    45    50    47    1
    46    51     8    1
    47    52    51    1
    48    53    51    1
    49    54    51    1
    50    55     6    1
    51    56     7    1
    52    57     9    1
    53    58     8    1
    54    15    41    1
    55    21    26    1
    56    22    26    2
    57    24    45    2
    58    29    39    2
    59    31    36    1
    60    34    43   ar
@<TRIPOS>SUBSTRUCTURE
     1 RES1        1 GROUP             0 ****  ****    0  
@<TRIPOS>CRYSIN
    9.8810   10.3886   11.8044   83.1110   81.3740   63.5030     2     1
