@<TRIPOS>MOLECULE
02
    17    17     1     0     0
SMALL
NO_CHARGES
****
Generated from the CSD

@<TRIPOS>ATOM
     1 N1       5.8799   4.7770  11.8417   N.ar      1 RES2   0.0000
     2 O4       8.4438   6.4698  10.0740   O.2       1 RES2   0.0000
     3 N4       7.3066   4.5721   9.5541   N.am      1 RES2   0.0000
     4 C1       5.1722   4.8677  12.9732   C.ar      1 RES2   0.0000
     5 C6       6.9126   5.6133  11.6846   C.ar      1 RES2   0.0000
     6 C13      7.3158   6.5076  12.6697   C.ar      1 RES2   0.0000
     7 H6       8.0772   7.0293  12.5504   H         1 RES2   0.0000
     8 C16      6.5674   6.6109  13.8308   C.ar      1 RES2   0.0000
     9 H10      6.8047   7.2149  14.4971   H         1 RES2   0.0000
    10 C20      7.6208   5.5894  10.3618   C.2       1 RES2   0.0000
    11 C21      5.4537   5.7907  13.9764   C.ar      1 RES2   0.0000
    12 H14      4.9091   5.8574  14.7278   H         1 RES2   0.0000
    13 C24      7.8118   4.5003   8.1963   C.3       1 RES2   0.0000
    14 H19      7.1966   4.9359   7.6027   H         1 RES2   0.0000
    15 H20      7.9075   3.5801   7.9382   H         1 RES2   0.0000
    16 H21      8.6656   4.9362   8.1491   H         1 RES2   0.0000
    17 H25      6.6103   4.0518   9.8022   H         1 RES2   0.0000
@<TRIPOS>BOND
     1     1     4   ar
     2     2    10    2
     3     3    10   am
     4     5     1   ar
     5     6     5   ar
     6     7     6    1
     7     8     6   ar
     8     9     8    1
     9    10     5    1
    10    11     4   ar
    11    12    11    1
    12    13     3    1
    13    14    13    1
    14    15    13    1
    15    16    13    1
    16    17     3    1
    17     8    11   ar
@<TRIPOS>SUBSTRUCTURE
     1 RES2        1 GROUP             0 ****  ****    0  
