@<TRIPOS>MOLECULE
01
    24    25     1     0     0
SMALL
NO_CHARGES
****
Generated from the CSD

@<TRIPOS>ATOM
     1 O3       1.7100  -1.4233   4.4486   O.2       1 RES1   0.0000
     2 N5       0.9415  -2.0253   6.4702   N.am      1 RES1   0.0000
     3 C2       2.9611  -0.3212   7.7425   C.2       1 RES1   0.0000
     4 H1       2.5327  -0.8361   8.3879   H         1 RES1   0.0000
     5 C3       2.7106  -0.3944   6.3607   C.2       1 RES1   0.0000
     6 C4       1.7550  -1.3007   5.6807   C.2       1 RES1   0.0000
     7 C5       3.9507   0.6407   8.0106   C.2       1 RES1   0.0000
     8 C9       3.5710   0.5342   5.7189   C.2       1 RES1   0.0000
     9 C10      5.3527   2.1641   6.6076   C.2       1 RES1   0.0000
    10 H4       5.7442   2.4744   7.3919   H         1 RES1   0.0000
    11 C11      5.4667   2.4779   4.1150   C.2       1 RES1   0.0000
    12 H5       5.9317   2.9555   3.4658   H         1 RES1   0.0000
    13 C12      4.3579   1.2038   6.7736   C.2       1 RES1   0.0000
    14 C14      3.6488   0.7554   4.3444   C.2       1 RES1   0.0000
    15 H7       3.0563   0.2605   3.8270   H         1 RES1   0.0000
    16 C18      4.4856   1.6098   3.6384   C.2       1 RES1   0.0000
    17 H13      4.3754   1.6013   2.7144   H         1 RES1   0.0000
    18 C22      5.8436   2.7253   5.4286   C.2       1 RES1   0.0000
    19 H15      6.5191   3.3550   5.5372   H         1 RES1   0.0000
    20 C23     -0.0391  -2.9233   5.8939   C.3       1 RES1   0.0000
    21 H16     -0.5535  -2.4546   5.2320   H         1 RES1   0.0000
    22 H17     -0.6232  -3.2446   6.5845   H         1 RES1   0.0000
    23 H18      0.4099  -3.6658   5.4836   H         1 RES1   0.0000
    24 H24      0.9275  -1.9313   7.3359   H         1 RES1   0.0000
@<TRIPOS>BOND
     1     1     6    2
     2     2     6   am
     3     3     4    1
     4     5     3    1
     5     6     5    1
     6     7     3    2
     7     8     5    2
     8     9    10    1
     9    11    12    1
    10    13     7    1
    11    14     8    1
    12    15    14    1
    13    16    11    1
    14    17    16    1
    15    18     9    1
    16    19    18    1
    17    20     2    1
    18    21    20    1
    19    22    20    1
    20    23    20    1
    21    24     2    1
    22     8    13    1
    23     9    13    2
    24    11    18    2
    25    14    16    2
@<TRIPOS>SUBSTRUCTURE
     1 RES1        1 GROUP             0 ****  ****    0  
