@<TRIPOS>MOLECULE
01
    25    28     1     0     0
SMALL
NO_CHARGES
****
Generated from the CSD

@<TRIPOS>ATOM
     1 C1       4.9671   0.9705   3.7242   C.ar      1 RES1   0.0000
     2 C2       5.7121   2.1345   3.4682   C.ar      1 RES1   0.0000
     3 H1       5.6739   2.8288   4.0862   H         1 RES1   0.0000
     4 C3       6.4838   2.2941   2.3620   C.ar      1 RES1   0.0000
     5 H2       6.9505   3.0894   2.2431   H         1 RES1   0.0000
     6 C4       6.5876   1.3134   1.4269   C.ar      1 RES1   0.0000
     7 C5       5.8193   0.1006   1.6071   C.ar      1 RES1   0.0000
     8 C6       5.0063  -0.0756   2.7859   C.ar      1 RES1   0.0000
     9 C7       4.2987  -1.3102   2.9673   C.ar      1 RES1   0.0000
    10 H3       3.7743  -1.4328   3.7240   H         1 RES1   0.0000
    11 C8       4.3885  -2.3053   2.0395   C.ar      1 RES1   0.0000
    12 H4       3.9390  -3.1087   2.1710   H         1 RES1   0.0000
    13 C9       5.2003  -2.1006   0.8306   C.ar      1 RES1   0.0000
    14 C10      5.2759  -3.1655  -0.1387   C.ar      1 RES1   0.0000
    15 H5       4.8092  -3.9621  -0.0270   H         1 RES1   0.0000
    16 C11      6.0896  -2.9381  -1.2558   C.ar      1 RES1   0.0000
    17 H6       6.1531  -3.6010  -1.9044   H         1 RES1   0.0000
    18 C12      6.7987  -1.7728  -1.4323   C.ar      1 RES1   0.0000
    19 H7       7.3420  -1.6736  -2.1800   H         1 RES1   0.0000
    20 C13      6.7143  -0.7668  -0.5261   C.ar      1 RES1   0.0000
    21 C14      5.9194  -0.9390   0.6612   C.ar      1 RES1   0.0000
    22 C15      7.3777   1.4126   0.2432   C.ar      1 RES1   0.0000
    23 H8       7.8653   2.1908   0.0973   H         1 RES1   0.0000
    24 C16      7.4449   0.4742  -0.6306   C.ar      1 RES1   0.0000
    25 H9       7.9931   0.6012  -1.3711   H         1 RES1   0.0000
@<TRIPOS>BOND
     1     1     2   ar
     2     2     3    1
     3     4     2   ar
     4     5     4    1
     5     6     4   ar
     6     7     6   ar
     7     8     1   ar
     8     9     8   ar
     9    10     9    1
    10    11     9   ar
    11    12    11    1
    12    13    11   ar
    13    14    13   ar
    14    15    14    1
    15    16    14   ar
    16    17    16    1
    17    18    16   ar
    18    19    18    1
    19    20    18   ar
    20    21     7   ar
    21    22     6   ar
    22    23    22    1
    23    24    20   ar
    24    25    24    1
    25     7     8   ar
    26    13    21   ar
    27    20    21   ar
    28    22    24   ar
@<TRIPOS>SUBSTRUCTURE
     1 RES1        1 GROUP             0 ****  ****    0  
