@<TRIPOS>MOLECULE
02
    28    28     1     0     0
SMALL
NO_CHARGES
****
Generated from the CSD

@<TRIPOS>ATOM
     1 C26     -0.3968  -0.4758   5.2627   C.3       1 RES2   0.0000
     2 H25     -1.2428  -0.3412   4.7852   H         1 RES2   0.0000
     3 C27     -0.6669  -1.1117   6.6162   C.3       1 RES2   0.0000
     4 H26     -1.1969  -0.5000   7.1508   H         1 RES2   0.0000
     5 H27      0.1776  -1.2492   7.0733   H         1 RES2   0.0000
     6 C28     -1.3979  -2.4437   6.5190   C.3       1 RES2   0.0000
     7 C29     -0.0799  -2.8067   4.2573   C.3       1 RES2   0.0000
     8 C30      0.4889  -1.4187   4.4789   C.3       1 RES2   0.0000
     9 H28      1.3351  -1.5039   4.9438   H         1 RES2   0.0000
    10 H29      0.6713  -1.0194   3.6123   H         1 RES2   0.0000
    11 C31     -2.8567  -2.2454   6.1256   C.3       1 RES2   0.0000
    12 H30     -2.9122  -1.6033   5.4140   H         1 RES2   0.0000
    13 H31     -3.3508  -1.9251   6.8841   H         1 RES2   0.0000
    14 H32     -3.2261  -3.0815   5.8338   H         1 RES2   0.0000
    15 C32     -1.3060  -3.1818   7.8516   C.3       1 RES2   0.0000
    16 H33     -1.7886  -4.0096   7.7940   H         1 RES2   0.0000
    17 H34     -1.6869  -2.6372   8.5453   H         1 RES2   0.0000
    18 H35     -0.3859  -3.3612   8.0552   H         1 RES2   0.0000
    19 C33      1.0004  -3.7592   3.8447   C.3       1 RES2   0.0000
    20 H36      1.5862  -3.9197   4.5870   H         1 RES2   0.0000
    21 H37      1.5005  -3.3809   3.1169   H         1 RES2   0.0000
    22 H38      0.6057  -4.5884   3.5637   H         1 RES2   0.0000
    23 C34     -1.1448  -2.7814   3.1259   C.3       1 RES2   0.0000
    24 H39     -1.5690  -3.6414   3.0664   H         1 RES2   0.0000
    25 H40     -0.7194  -2.5766   2.2899   H         1 RES2   0.0000
    26 H41     -1.8044  -2.1121   3.3223   H         1 RES2   0.0000
    27 N4      -0.7411  -3.3036   5.4803   N.pl3     1 RES2   0.0000
    28 O4      -1.0982  -4.5405   5.4477   O.2       1 RES2   0.0000
@<TRIPOS>BOND
     1     2     1    1
     2     3     1    1
     3     4     3    1
     4     5     3    1
     5     6     3    1
     6     7     8    1
     7     8     1    1
     8     9     8    1
     9    10     8    1
    10    11     6    1
    11    12    11    1
    12    13    11    1
    13    14    11    1
    14    15     6    1
    15    16    15    1
    16    17    15    1
    17    18    15    1
    18    19     7    1
    19    20    19    1
    20    21    19    1
    21    22    19    1
    22    23     7    1
    23    24    23    1
    24    25    23    1
    25    26    23    1
    26    27     6    1
    27    28    27    2
    28     7    27    1
@<TRIPOS>SUBSTRUCTURE
     1 RES2        1 GROUP             0 ****  ****    0  
