@<TRIPOS>MOLECULE
OBEBIG
    69    70     1     0     0
SMALL
NO_CHARGES
****
Generated from the CSD

@<TRIPOS>ATOM
     1 O1       5.2583   4.8859   4.9699   O.2       1 RES1   0.0000
     2 O2       4.7094   6.0213   6.8209   O.3       1 RES1   0.0000
     3 O3       5.0802   7.9606   3.8498   O.2       1 RES1   0.0000
     4 O4       4.0721   7.7364   1.8090   O.3       1 RES1   0.0000
     5 O5       6.9755   4.6103   0.0891   O.2       1 RES1   0.0000
     6 O6       5.1677   4.7506  -1.2171   O.3       1 RES1   0.0000
     7 O7       6.2467   1.9405   1.3163   O.2       1 RES1   0.0000
     8 O8       6.7641   2.5761   3.4291   O.3       1 RES1   0.0000
     9 N1       3.3860   6.4950   3.5336   N.am      1 RES1   0.0000
    10 N2       5.3733   3.8288   2.2587   N.am      1 RES1   0.0000
    11 C1       3.2786   6.2935   4.9804   C.3       1 RES1   0.0000
    12 C2       2.0473   5.3903   5.1240   C.3       1 RES1   0.0000
    13 C3       1.1889   5.7787   3.9246   C.3       1 RES1   0.0000
    14 C4       2.2118   5.9745   2.7982   C.3       1 RES1   0.0000
    15 C5       2.5252   4.6427   2.0885   C.3       1 RES1   0.0000
    16 C6       3.5382   4.7645   1.0014   C.2       1 RES1   0.0000
    17 C7       4.8076   4.3498   1.0743   C.2       1 RES1   0.0000
    18 C8       6.1347   2.7082   2.2355   C.2       1 RES1   0.0000
    19 C9       7.6004   1.4073   3.5634   C.3       1 RES1   0.0000
    20 C10      8.5437   1.6447   4.7049   C.ar      1 RES1   0.0000
    21 C11      9.9006   1.3996   4.5312   C.ar      1 RES1   0.0000
    22 C12     10.7804   1.5275   5.5870   C.ar      1 RES1   0.0000
    23 C13     10.3108   1.9129   6.8154   C.ar      1 RES1   0.0000
    24 C14      8.9739   2.1780   6.9994   C.ar      1 RES1   0.0000
    25 C15      8.0840   2.0501   5.9436   C.ar      1 RES1   0.0000
    26 C16      4.5327   5.6492   5.5442   C.2       1 RES1   0.0000
    27 C17      5.8828   5.4828   7.4833   C.3       1 RES1   0.0000
    28 C18      6.0476   6.1671   8.7892   C.3       1 RES1   0.0000
    29 C19      4.2535   7.4527   3.1130   C.2       1 RES1   0.0000
    30 C20      4.9952   8.6565   1.1091   C.3       1 RES1   0.0000
    31 C21      6.4239   8.1309   1.1693   C.3       1 RES1   0.0000
    32 C22      4.4616   8.6118  -0.3207   C.3       1 RES1   0.0000
    33 C23      4.8687  10.0607   1.6752   C.3       1 RES1   0.0000
    34 C24      5.7832   4.5703  -0.0370   C.2       1 RES1   0.0000
    35 C25      6.0460   5.1097  -2.3108   C.3       1 RES1   0.0000
    36 H1       5.2426   4.2543   2.9405   H         1 RES1   0.0000
    37 H2       3.1196   7.1675   5.3949   H         1 RES1   0.0000
    38 H3       1.6304   5.5028   5.9853   H         1 RES1   0.0000
    39 H4       2.3283   4.4855   4.9781   H         1 RES1   0.0000
    40 H5       0.7419   6.6280   4.1098   H         1 RES1   0.0000
    41 H6       0.5288   5.0866   3.6467   H         1 RES1   0.0000
    42 H7       1.8993   6.6434   2.1417   H         1 RES1   0.0000
    43 H8       1.7768   4.3930   1.6902   H         1 RES1   0.0000
    44 H9       2.8334   3.9922   2.8016   H         1 RES1   0.0000
    45 H10      3.2562   5.2099   0.2547   H         1 RES1   0.0000
    46 H11      8.0798   1.2331   2.7437   H         1 RES1   0.0000
    47 H12      7.0058   0.6782   3.7509   H         1 RES1   0.0000
    48 H13     10.2374   1.1098   3.5889   H         1 RES1   0.0000
    49 H14     11.7157   1.2331   5.5222   H         1 RES1   0.0000
    50 H15     10.8942   2.0655   7.4324   H         1 RES1   0.0000
    51 H16      8.6225   2.4971   7.8145   H         1 RES1   0.0000
    52 H17      7.1856   2.2504   6.1242   H         1 RES1   0.0000
    53 H18      6.5910   5.5336   6.9114   H         1 RES1   0.0000
    54 H19      5.7240   4.5780   7.5250   H         1 RES1   0.0000
    55 H20      6.8354   5.8111   9.2153   H         1 RES1   0.0000
    56 H21      6.0932   7.1829   8.5901   H         1 RES1   0.0000
    57 H22      5.1878   5.7494   9.4005   H         1 RES1   0.0000
    58 H23      6.7917   8.1540   2.1302   H         1 RES1   0.0000
    59 H24      6.5146   7.1675   0.8104   H         1 RES1   0.0000
    60 H25      6.9721   8.6473   0.5673   H         1 RES1   0.0000
    61 H26      3.5814   8.8631  -0.2894   H         1 RES1   0.0000
    62 H27      4.9510   9.2792  -0.9146   H         1 RES1   0.0000
    63 H28      4.5547   7.7224  -0.7062   H         1 RES1   0.0000
    64 H29      4.0000  10.3428   1.6092   H         1 RES1   0.0000
    65 H30      5.1930  10.0191   2.5817   H         1 RES1   0.0000
    66 H31      5.4281  10.6202   1.0767   H         1 RES1   0.0000
    67 H32      6.7697   4.4546  -2.4427   H         1 RES1   0.0000
    68 H33      6.5411   5.9806  -2.0491   H         1 RES1   0.0000
    69 H34      5.4673   5.1329  -3.0332   H         1 RES1   0.0000
@<TRIPOS>BOND
     1     1    26    2
     2     2    26    1
     3     3    29    2
     4     4    29    1
     5     5    34    2
     6     6    34    1
     7     7    18    2
     8     8    18    1
     9     9    11    1
    10    10    17    1
    11    11    12    1
    12    12    13    1
    13    13    14    1
    14    14     9    1
    15    15    14    1
    16    16    15    1
    17    17    16    2
    18    18    10   am
    19    19     8    1
    20    20    19    1
    21    21    20   ar
    22    22    21   ar
    23    23    22   ar
    24    24    23   ar
    25    25    20   ar
    26    26    11    1
    27    27     2    1
    28    28    27    1
    29    29     9   am
    30    30     4    1
    31    31    30    1
    32    32    30    1
    33    33    30    1
    34    34    17    1
    35    35     6    1
    36    36    10    1
    37    37    11    1
    38    38    12    1
    39    39    12    1
    40    40    13    1
    41    41    13    1
    42    42    14    1
    43    43    15    1
    44    44    15    1
    45    45    16    1
    46    46    19    1
    47    47    19    1
    48    48    21    1
    49    49    22    1
    50    50    23    1
    51    51    24    1
    52    52    25    1
    53    53    27    1
    54    54    27    1
    55    55    28    1
    56    56    28    1
    57    57    28    1
    58    58    31    1
    59    59    31    1
    60    60    31    1
    61    61    32    1
    62    62    32    1
    63    63    32    1
    64    64    33    1
    65    65    33    1
    66    66    33    1
    67    67    35    1
    68    68    35    1
    69    69    35    1
    70    24    25   ar
@<TRIPOS>SUBSTRUCTURE
     1 RES1        1 GROUP             0 ****  ****    0  
@<TRIPOS>CRYSIN
    7.2320   15.4140   12.1040   90.0000  106.9700   90.0000     4     1
