@<TRIPOS>MOLECULE
02
    14    14     1     0     0
SMALL
NO_CHARGES
****
Generated from the CSD

@<TRIPOS>ATOM
     1 C9       7.6004   1.4073   3.5634   C.3       1 RES2   0.0000
     2 C10      8.5437   1.6447   4.7049   C.ar      1 RES2   0.0000
     3 C11      9.9006   1.3996   4.5312   C.ar      1 RES2   0.0000
     4 C12     10.7804   1.5275   5.5870   C.ar      1 RES2   0.0000
     5 C13     10.3108   1.9129   6.8154   C.ar      1 RES2   0.0000
     6 C14      8.9739   2.1780   6.9994   C.ar      1 RES2   0.0000
     7 C15      8.0840   2.0501   5.9436   C.ar      1 RES2   0.0000
     8 H11      8.0798   1.2331   2.7437   H         1 RES2   0.0000
     9 H12      7.0058   0.6782   3.7509   H         1 RES2   0.0000
    10 H13     10.2374   1.1098   3.5889   H         1 RES2   0.0000
    11 H14     11.7157   1.2331   5.5222   H         1 RES2   0.0000
    12 H15     10.8942   2.0655   7.4324   H         1 RES2   0.0000
    13 H16      8.6225   2.4971   7.8145   H         1 RES2   0.0000
    14 H17      7.1856   2.2504   6.1242   H         1 RES2   0.0000
@<TRIPOS>BOND
     1     2     1    1
     2     3     2   ar
     3     4     3   ar
     4     5     4   ar
     5     6     5   ar
     6     7     2   ar
     7     8     1    1
     8     9     1    1
     9    10     3    1
    10    11     4    1
    11    12     5    1
    12    13     6    1
    13    14     7    1
    14     6     7   ar
@<TRIPOS>SUBSTRUCTURE
     1 RES2        1 GROUP             0 ****  ****    0  
