@<TRIPOS>MOLECULE
01
    37    37     1     0     0
SMALL
NO_CHARGES
****
Generated from the CSD

@<TRIPOS>ATOM
     1 O1       5.2583   4.8859   4.9699   O.2       1 RES1   0.0000
     2 O2       4.7094   6.0213   6.8209   O.3       1 RES1   0.0000
     3 O3       5.0802   7.9606   3.8498   O.2       1 RES1   0.0000
     4 O4       4.0721   7.7364   1.8090   O.3       1 RES1   0.0000
     5 N1       3.3860   6.4950   3.5336   N.am      1 RES1   0.0000
     6 C1       3.2786   6.2935   4.9804   C.3       1 RES1   0.0000
     7 C2       2.0473   5.3903   5.1240   C.3       1 RES1   0.0000
     8 C3       1.1889   5.7787   3.9246   C.3       1 RES1   0.0000
     9 C4       2.2118   5.9745   2.7982   C.3       1 RES1   0.0000
    10 C16      4.5327   5.6492   5.5442   C.2       1 RES1   0.0000
    11 C17      5.8828   5.4828   7.4833   C.3       1 RES1   0.0000
    12 C18      6.0476   6.1671   8.7892   C.3       1 RES1   0.0000
    13 C19      4.2535   7.4527   3.1130   C.2       1 RES1   0.0000
    14 C20      4.9952   8.6565   1.1091   C.3       1 RES1   0.0000
    15 C21      6.4239   8.1309   1.1693   C.3       1 RES1   0.0000
    16 C22      4.4616   8.6118  -0.3207   C.3       1 RES1   0.0000
    17 C23      4.8687  10.0607   1.6752   C.3       1 RES1   0.0000
    18 H2       3.1196   7.1675   5.3949   H         1 RES1   0.0000
    19 H3       1.6304   5.5028   5.9853   H         1 RES1   0.0000
    20 H4       2.3283   4.4855   4.9781   H         1 RES1   0.0000
    21 H5       0.7419   6.6280   4.1098   H         1 RES1   0.0000
    22 H6       0.5288   5.0866   3.6467   H         1 RES1   0.0000
    23 H7       1.8993   6.6434   2.1417   H         1 RES1   0.0000
    24 H18      6.5910   5.5336   6.9114   H         1 RES1   0.0000
    25 H19      5.7240   4.5780   7.5250   H         1 RES1   0.0000
    26 H20      6.8354   5.8111   9.2153   H         1 RES1   0.0000
    27 H21      6.0932   7.1829   8.5901   H         1 RES1   0.0000
    28 H22      5.1878   5.7494   9.4005   H         1 RES1   0.0000
    29 H23      6.7917   8.1540   2.1302   H         1 RES1   0.0000
    30 H24      6.5146   7.1675   0.8104   H         1 RES1   0.0000
    31 H25      6.9721   8.6473   0.5673   H         1 RES1   0.0000
    32 H26      3.5814   8.8631  -0.2894   H         1 RES1   0.0000
    33 H27      4.9510   9.2792  -0.9146   H         1 RES1   0.0000
    34 H28      4.5547   7.7224  -0.7062   H         1 RES1   0.0000
    35 H29      4.0000  10.3428   1.6092   H         1 RES1   0.0000
    36 H30      5.1930  10.0191   2.5817   H         1 RES1   0.0000
    37 H31      5.4281  10.6202   1.0767   H         1 RES1   0.0000
@<TRIPOS>BOND
     1     1    10    2
     2     2    10    1
     3     3    13    2
     4     4    13    1
     5     5     6    1
     6     6     7    1
     7     7     8    1
     8     8     9    1
     9     9     5    1
    10    10     6    1
    11    11     2    1
    12    12    11    1
    13    13     5   am
    14    14     4    1
    15    15    14    1
    16    16    14    1
    17    17    14    1
    18    18     6    1
    19    19     7    1
    20    20     7    1
    21    21     8    1
    22    22     8    1
    23    23     9    1
    24    24    11    1
    25    25    11    1
    26    26    12    1
    27    27    12    1
    28    28    12    1
    29    29    15    1
    30    30    15    1
    31    31    15    1
    32    32    16    1
    33    33    16    1
    34    34    16    1
    35    35    17    1
    36    36    17    1
    37    37    17    1
@<TRIPOS>SUBSTRUCTURE
     1 RES1        1 GROUP             0 ****  ****    0  
