@<TRIPOS>MOLECULE
OFINUP
    79    81     1     0     0
SMALL
NO_CHARGES
****
Generated from the CSD

@<TRIPOS>ATOM
     1 C1      14.2946   1.5284  10.5061   C.3       1 RES1   0.0000
     2 H1      14.5187   1.2289  11.4012   H         1 RES1   0.0000
     3 H2      15.1208   1.6213  10.0066   H         1 RES1   0.0000
     4 C2      13.4344   0.5069   9.8474   C.2       1 RES1   0.0000
     5 H3      13.1668   0.6603   8.9701   H         1 RES1   0.0000
     6 C3      13.0329  -0.5941  10.4290   C.2       1 RES1   0.0000
     7 H4      13.2845  -0.7753  11.3059   H         1 RES1   0.0000
     8 H5      12.4958  -1.1958   9.9658   H         1 RES1   0.0000
     9 C4      12.7460   3.2291  11.6237   C.ar      1 RES1   0.0000
    10 C5      12.4409   2.5510  12.7917   C.ar      1 RES1   0.0000
    11 H6      12.7838   1.7046  12.9656   H         1 RES1   0.0000
    12 C6      11.6042   3.1888  13.6877   C.ar      1 RES1   0.0000
    13 H7      11.3842   2.7598  14.4832   H         1 RES1   0.0000
    14 C7      11.0849   4.4442  13.4361   C.ar      1 RES1   0.0000
    15 H8      10.5261   4.8482  14.0599   H         1 RES1   0.0000
    16 C8      11.3961   5.1054  12.2510   C.ar      1 RES1   0.0000
    17 H9      11.0458   5.9481  12.0719   H         1 RES1   0.0000
    18 C9      12.2269   4.4913  11.3565   C.ar      1 RES1   0.0000
    19 C10     13.7056   3.7795   9.6314   C.2       1 RES1   0.0000
    20 C11     12.7830   4.9489  10.0138   C.3       1 RES1   0.0000
    21 C12     11.7102   5.1692   8.9125   C.3       1 RES1   0.0000
    22 H10     12.1562   5.0860   8.0439   H         1 RES1   0.0000
    23 C13     10.6393   4.0940   8.9831   C.2       1 RES1   0.0000
    24 C14     11.0890   6.5745   8.9829   C.3       1 RES1   0.0000
    25 H11     10.1282   6.5110   8.8653   H         1 RES1   0.0000
    26 H12     11.2614   6.9624   9.8549   H         1 RES1   0.0000
    27 C15      9.3759   7.8280   6.6105   C.ar      1 RES1   0.0000
    28 C16      8.0859   7.8467   7.1888   C.ar      1 RES1   0.0000
    29 C17      7.0243   7.4173   6.4018   C.ar      1 RES1   0.0000
    30 H13      6.1659   7.4560   6.7575   H         1 RES1   0.0000
    31 C18      7.1816   6.9371   5.1188   C.ar      1 RES1   0.0000
    32 C19      8.4749   6.8073   4.6367   C.ar      1 RES1   0.0000
    33 H14      8.6019   6.4200   3.8009   H         1 RES1   0.0000
    34 C20      9.5944   7.2352   5.3517   C.ar      1 RES1   0.0000
    35 C21     10.9701   7.0042   4.7276   C.3       1 RES1   0.0000
    36 H15     11.6500   7.2431   5.3918   H         1 RES1   0.0000
    37 C22     11.1548   5.5261   4.3677   C.3       1 RES1   0.0000
    38 H16     10.5334   5.2848   3.6767   H         1 RES1   0.0000
    39 H17     10.9952   4.9850   5.1445   H         1 RES1   0.0000
    40 H18     12.0514   5.3820   4.0561   H         1 RES1   0.0000
    41 C23     11.1645   7.8982   3.5074   C.3       1 RES1   0.0000
    42 H19     10.5699   7.6181   2.8077   H         1 RES1   0.0000
    43 H20     12.0722   7.8300   3.2022   H         1 RES1   0.0000
    44 H21     10.9739   8.8086   3.7441   H         1 RES1   0.0000
    45 C24      6.0910   5.3874   3.4268   C.3       1 RES1   0.0000
    46 H22      6.7606   5.5460   2.7575   H         1 RES1   0.0000
    47 H23      5.2514   5.1989   3.0010   H         1 RES1   0.0000
    48 H24      6.3506   4.6376   3.9675   H         1 RES1   0.0000
    49 C25      5.5520   7.8266   3.4985   C.3       1 RES1   0.0000
    50 H25      6.2552   8.0555   2.8861   H         1 RES1   0.0000
    51 H26      5.4002   8.5602   4.0993   H         1 RES1   0.0000
    52 H27      4.7476   7.6434   3.0079   H         1 RES1   0.0000
    53 C26      5.9512   6.6003   4.2902   C.3       1 RES1   0.0000
    54 H28      5.2236   6.4190   4.9211   H         1 RES1   0.0000
    55 C27      6.8892   7.2157   9.3304   C.3       1 RES1   0.0000
    56 H29      6.0242   7.1795   8.9158   H         1 RES1   0.0000
    57 H30      6.7915   7.4573  10.2543   H         1 RES1   0.0000
    58 H31      7.3103   6.3551   9.2677   H         1 RES1   0.0000
    59 C28      7.1002   9.6380   8.6351   C.3       1 RES1   0.0000
    60 H32      7.7047  10.2819   8.2591   H         1 RES1   0.0000
    61 H33      6.8930   9.8833   9.5396   H         1 RES1   0.0000
    62 H34      6.2928   9.6159   8.1162   H         1 RES1   0.0000
    63 C29      7.7526   8.2586   8.6190   C.3       1 RES1   0.0000
    64 H35      8.5976   8.3265   9.1107   H         1 RES1   0.0000
    65 C30     10.2108   1.7790   8.7755   C.3       1 RES1   0.0000
    66 H36      9.8894   1.7062   9.6765   H         1 RES1   0.0000
    67 H37     10.6623   0.9674   8.5301   H         1 RES1   0.0000
    68 H38      9.4701   1.9239   8.1817   H         1 RES1   0.0000
    69 N1      13.6278   2.8307  10.5847   N.am      1 RES1   0.0000
    70 N2      11.6539   7.4323   7.9444   N.pl3     1 RES1   0.0000
    71 H39     12.4434   7.2899   7.6342   H         1 RES1   0.0000
    72 O1      10.2696   9.4981   8.4515   O.2       1 RES1   0.0000
    73 O2      11.5469   9.3250   6.3990   O.2       1 RES1   0.0000
    74 O3      14.4244   3.7516   8.6339   O.2       1 RES1   0.0000
    75 O4      13.5606   6.1185  10.2060   O.3       1 RES1   0.0000
    76 H40     13.9843   6.2803   9.5228   H         1 RES1   0.0000
    77 O5      11.1401   2.9013   8.6778   O.3       1 RES1   0.0000
    78 O6       9.4893   4.2833   9.2790   O.2       1 RES1   0.0000
    79 S1      10.7456   8.6676   7.3901   S.o2      1 RES1   0.0000
@<TRIPOS>BOND
     1     1     2    1
     2     3     1    1
     3     4     1    1
     4     5     4    1
     5     6     4    2
     6     7     6    1
     7     8     6    1
     8     9    10   ar
     9    10    11    1
    10    12    10   ar
    11    13    12    1
    12    14    12   ar
    13    15    14    1
    14    16    14   ar
    15    17    16    1
    16    18     9   ar
    17    19    20    1
    18    20    18    1
    19    21    20    1
    20    22    21    1
    21    23    21    1
    22    24    21    1
    23    25    24    1
    24    26    24    1
    25    27    28   ar
    26    28    29   ar
    27    29    30    1
    28    31    29   ar
    29    32    31   ar
    30    33    32    1
    31    34    27   ar
    32    35    34    1
    33    36    35    1
    34    37    35    1
    35    38    37    1
    36    39    37    1
    37    40    37    1
    38    41    35    1
    39    42    41    1
    40    43    41    1
    41    44    41    1
    42    45    46    1
    43    47    45    1
    44    48    45    1
    45    49    50    1
    46    51    49    1
    47    52    49    1
    48    53    31    1
    49    54    53    1
    50    55    56    1
    51    57    55    1
    52    58    55    1
    53    59    60    1
    54    61    59    1
    55    62    59    1
    56    63    28    1
    57    64    63    1
    58    65    66    1
    59    67    65    1
    60    68    65    1
    61    69     1    1
    62    70    24    1
    63    71    70    1
    64    72    79    2
    65    73    79    2
    66    74    19    2
    67    75    20    1
    68    76    75    1
    69    77    23    1
    70    78    23    2
    71    79    27    1
    72     9    69    1
    73    16    18   ar
    74    19    69   am
    75    32    34   ar
    76    45    53    1
    77    49    53    1
    78    55    63    1
    79    59    63    1
    80    65    77    1
    81    70    79    1
@<TRIPOS>SUBSTRUCTURE
     1 RES1        1 GROUP             0 ****  ****    0  
@<TRIPOS>CRYSIN
   16.0374   11.1888   16.9476   90.0000  100.1280   90.0000    14     1
