@<TRIPOS>MOLECULE
02
    38    38     1     0     0
SMALL
NO_CHARGES
****
Generated from the CSD

@<TRIPOS>ATOM
     1 C15      9.3759   7.8280   6.6105   C.ar      1 RES2   0.0000
     2 C16      8.0859   7.8467   7.1888   C.ar      1 RES2   0.0000
     3 C17      7.0243   7.4173   6.4018   C.ar      1 RES2   0.0000
     4 H13      6.1659   7.4560   6.7575   H         1 RES2   0.0000
     5 C18      7.1816   6.9371   5.1188   C.ar      1 RES2   0.0000
     6 C19      8.4749   6.8073   4.6367   C.ar      1 RES2   0.0000
     7 H14      8.6019   6.4200   3.8009   H         1 RES2   0.0000
     8 C20      9.5944   7.2352   5.3517   C.ar      1 RES2   0.0000
     9 C21     10.9701   7.0042   4.7276   C.3       1 RES2   0.0000
    10 H15     11.6500   7.2431   5.3918   H         1 RES2   0.0000
    11 C22     11.1548   5.5261   4.3677   C.3       1 RES2   0.0000
    12 H16     10.5334   5.2848   3.6767   H         1 RES2   0.0000
    13 H17     10.9952   4.9850   5.1445   H         1 RES2   0.0000
    14 H18     12.0514   5.3820   4.0561   H         1 RES2   0.0000
    15 C23     11.1645   7.8982   3.5074   C.3       1 RES2   0.0000
    16 H19     10.5699   7.6181   2.8077   H         1 RES2   0.0000
    17 H20     12.0722   7.8300   3.2022   H         1 RES2   0.0000
    18 H21     10.9739   8.8086   3.7441   H         1 RES2   0.0000
    19 C24      6.0910   5.3874   3.4268   C.3       1 RES2   0.0000
    20 H22      6.7606   5.5460   2.7575   H         1 RES2   0.0000
    21 H23      5.2514   5.1989   3.0010   H         1 RES2   0.0000
    22 H24      6.3506   4.6376   3.9675   H         1 RES2   0.0000
    23 C25      5.5520   7.8266   3.4985   C.3       1 RES2   0.0000
    24 H25      6.2552   8.0555   2.8861   H         1 RES2   0.0000
    25 H26      5.4002   8.5602   4.0993   H         1 RES2   0.0000
    26 H27      4.7476   7.6434   3.0079   H         1 RES2   0.0000
    27 C26      5.9512   6.6003   4.2902   C.3       1 RES2   0.0000
    28 H28      5.2236   6.4190   4.9211   H         1 RES2   0.0000
    29 C27      6.8892   7.2157   9.3304   C.3       1 RES2   0.0000
    30 H29      6.0242   7.1795   8.9158   H         1 RES2   0.0000
    31 H30      6.7915   7.4573  10.2543   H         1 RES2   0.0000
    32 H31      7.3103   6.3551   9.2677   H         1 RES2   0.0000
    33 C28      7.1002   9.6380   8.6351   C.3       1 RES2   0.0000
    34 H32      7.7047  10.2819   8.2591   H         1 RES2   0.0000
    35 H33      6.8930   9.8833   9.5396   H         1 RES2   0.0000
    36 H34      6.2928   9.6159   8.1162   H         1 RES2   0.0000
    37 C29      7.7526   8.2586   8.6190   C.3       1 RES2   0.0000
    38 H35      8.5976   8.3265   9.1107   H         1 RES2   0.0000
@<TRIPOS>BOND
     1     1     2   ar
     2     2     3   ar
     3     3     4    1
     4     5     3   ar
     5     6     5   ar
     6     7     6    1
     7     8     1   ar
     8     9     8    1
     9    10     9    1
    10    11     9    1
    11    12    11    1
    12    13    11    1
    13    14    11    1
    14    15     9    1
    15    16    15    1
    16    17    15    1
    17    18    15    1
    18    19    20    1
    19    21    19    1
    20    22    19    1
    21    23    24    1
    22    25    23    1
    23    26    23    1
    24    27     5    1
    25    28    27    1
    26    29    30    1
    27    31    29    1
    28    32    29    1
    29    33    34    1
    30    35    33    1
    31    36    33    1
    32    37     2    1
    33    38    37    1
    34     6     8   ar
    35    19    27    1
    36    23    27    1
    37    29    37    1
    38    33    37    1
@<TRIPOS>SUBSTRUCTURE
     1 RES2        1 GROUP             0 ****  ****    0  
