@<TRIPOS>MOLECULE
01
    24    25     1     0     0
SMALL
NO_CHARGES
****
Generated from the CSD

@<TRIPOS>ATOM
     1 C1      14.2946   1.5284  10.5061   C.3       1 RES1   0.0000
     2 H1      14.5187   1.2289  11.4012   H         1 RES1   0.0000
     3 H2      15.1208   1.6213  10.0066   H         1 RES1   0.0000
     4 C2      13.4344   0.5069   9.8474   C.2       1 RES1   0.0000
     5 H3      13.1668   0.6603   8.9701   H         1 RES1   0.0000
     6 C3      13.0329  -0.5941  10.4290   C.2       1 RES1   0.0000
     7 H4      13.2845  -0.7753  11.3059   H         1 RES1   0.0000
     8 H5      12.4958  -1.1958   9.9658   H         1 RES1   0.0000
     9 C4      12.7460   3.2291  11.6237   C.ar      1 RES1   0.0000
    10 C5      12.4409   2.5510  12.7917   C.ar      1 RES1   0.0000
    11 H6      12.7838   1.7046  12.9656   H         1 RES1   0.0000
    12 C6      11.6042   3.1888  13.6877   C.ar      1 RES1   0.0000
    13 H7      11.3842   2.7598  14.4832   H         1 RES1   0.0000
    14 C7      11.0849   4.4442  13.4361   C.ar      1 RES1   0.0000
    15 H8      10.5261   4.8482  14.0599   H         1 RES1   0.0000
    16 C8      11.3961   5.1054  12.2510   C.ar      1 RES1   0.0000
    17 H9      11.0458   5.9481  12.0719   H         1 RES1   0.0000
    18 C9      12.2269   4.4913  11.3565   C.ar      1 RES1   0.0000
    19 C10     13.7056   3.7795   9.6314   C.2       1 RES1   0.0000
    20 C11     12.7830   4.9489  10.0138   C.3       1 RES1   0.0000
    21 N1      13.6278   2.8307  10.5847   N.am      1 RES1   0.0000
    22 O3      14.4244   3.7516   8.6339   O.2       1 RES1   0.0000
    23 O4      13.5606   6.1185  10.2060   O.3       1 RES1   0.0000
    24 H40     13.9843   6.2803   9.5228   H         1 RES1   0.0000
@<TRIPOS>BOND
     1     1     2    1
     2     3     1    1
     3     4     1    1
     4     5     4    1
     5     6     4    2
     6     7     6    1
     7     8     6    1
     8     9    10   ar
     9    10    11    1
    10    12    10   ar
    11    13    12    1
    12    14    12   ar
    13    15    14    1
    14    16    14   ar
    15    17    16    1
    16    18     9   ar
    17    19    20    1
    18    20    18    1
    19    21     1    1
    20    22    19    2
    21    23    20    1
    22    24    23    1
    23     9    21    1
    24    16    18   ar
    25    19    21   am
@<TRIPOS>SUBSTRUCTURE
     1 RES1        1 GROUP             0 ****  ****    0  
