@<TRIPOS>MOLECULE
01
    34    34     1     0     0
SMALL
NO_CHARGES
****
Generated from the CSD

@<TRIPOS>ATOM
     1 C1       2.4617   3.8366  17.8827   C.3       1 RES1   0.0000
     2 H1       3.0299   3.3205  17.3066   H         1 RES1   0.0000
     3 H2       1.5522   3.7607  17.5879   H         1 RES1   0.0000
     4 H3       2.5352   3.5094  18.7824   H         1 RES1   0.0000
     5 O1       2.9639   5.7351  16.4379   O.3       1 RES1   0.0000
     6 N1       2.2376   6.1874  14.4171   N.am      1 RES1   0.0000
     7 H4       3.0123   6.5399  14.2954   H         1 RES1   0.0000
     8 C6       3.0467   9.0391  12.4786   C.ar      1 RES1   0.0000
     9 H13      3.8446   8.5770  12.3591   H         1 RES1   0.0000
    10 C7       0.6752   9.0813  12.5614   C.ar      1 RES1   0.0000
    11 H14     -0.1451   8.6495  12.4921   H         1 RES1   0.0000
    12 O6       0.7524   5.4386  15.9630   O.2       1 RES1   0.0000
    13 C9       1.8116   6.8755  12.0971   C.3       1 RES1   0.0000
    14 H19      2.6998   6.5736  11.8505   H         1 RES1   0.0000
    15 H20      1.2220   6.7136  11.3438   H         1 RES1   0.0000
    16 C10      1.8544   8.3612  12.3784   C.ar      1 RES1   0.0000
    17 C12      2.8877   5.2902  17.8384   C.3       1 RES1   0.0000
    18 C13      1.8767   5.7523  15.6459   C.2       1 RES1   0.0000
    19 C14      1.3197   6.0609  13.3090   C.3       1 RES1   0.0000
    20 H22      0.4631   6.4420  13.5902   H         1 RES1   0.0000
    21 C23      4.3347   5.4150  18.2911   C.3       1 RES1   0.0000
    22 H29      4.6481   6.3054  18.1177   H         1 RES1   0.0000
    23 H30      4.8769   4.7877  17.8076   H         1 RES1   0.0000
    24 H31      4.3933   5.2312  19.2313   H         1 RES1   0.0000
    25 C24      3.0839  10.4051  12.7579   C.ar      1 RES1   0.0000
    26 H32      3.9004  10.8452  12.8196   H         1 RES1   0.0000
    27 C25      1.9102  11.0965  12.9371   C.ar      1 RES1   0.0000
    28 H33      1.9251  12.0072  13.1240   H         1 RES1   0.0000
    29 C26      0.7142  10.4270  12.8389   C.ar      1 RES1   0.0000
    30 H34     -0.0809  10.8908  12.9641   H         1 RES1   0.0000
    31 C30      1.9893   6.1908  18.6244   C.3       1 RES1   0.0000
    32 H39      1.0983   6.1419  18.2699   H         1 RES1   0.0000
    33 H40      2.3092   7.0930  18.5628   H         1 RES1   0.0000
    34 H41      1.9837   5.9142  19.5434   H         1 RES1   0.0000
@<TRIPOS>BOND
     1     1     2    1
     2     3     1    1
     3     4     1    1
     4     5    17    1
     5     6     7    1
     6     8     9    1
     7    10    11    1
     8    12    18    2
     9    13    14    1
    10    15    13    1
    11    16     8   ar
    12    17     1    1
    13    18     5    1
    14    19     6    1
    15    20    19    1
    16    21    17    1
    17    22    21    1
    18    23    21    1
    19    24    21    1
    20    25     8   ar
    21    26    25    1
    22    27    25   ar
    23    28    27    1
    24    29    10   ar
    25    30    29    1
    26    31    17    1
    27    32    31    1
    28    33    31    1
    29    34    31    1
    30     6    18   am
    31    10    16   ar
    32    13    16    1
    33    13    19    1
    34    27    29   ar
@<TRIPOS>SUBSTRUCTURE
     1 RES1        1 GROUP             0 ****  ****    0  
