@<TRIPOS>MOLECULE
02
    23    23     1     0     0
SMALL
NO_CHARGES
****
Generated from the CSD

@<TRIPOS>ATOM
     1 C5       2.6496  -3.9361  18.8075   C.3       1 RES2   0.0000
     2 H11      1.7038  -4.1502  18.8518   H         1 RES2   0.0000
     3 H12      3.0839  -4.3627  19.5627   H         1 RES2   0.0000
     4 O4       2.7779  -6.4095  16.2368   O.3       1 RES2   0.0000
     5 O5       3.0169  -6.7270  18.3923   O.2       1 RES2   0.0000
     6 C11      4.0976  -1.9343  19.1215   C.ar      1 RES2   0.0000
     7 H21      4.8221  -2.5161  19.1620   H         1 RES2   0.0000
     8 C18      3.2197  -4.5010  17.5301   C.3       1 RES2   0.0000
     9 H25      4.1869  -4.3425  17.5513   H         1 RES2   0.0000
    10 C19      2.8170  -2.4571  18.9250   C.ar      1 RES2   0.0000
    11 C20      1.7726  -1.5818  18.8595   C.ar      1 RES2   0.0000
    12 H26      0.9068  -1.8938  18.7266   H         1 RES2   0.0000
    13 C21      2.0200  -0.1973  18.9905   C.ar      1 RES2   0.0000
    14 H27      1.3104   0.4014  18.9404   H         1 RES2   0.0000
    15 C22      3.2671   0.2665  19.1870   C.ar      1 RES2   0.0000
    16 H28      3.4103   1.1805  19.2776   H         1 RES2   0.0000
    17 C27      4.3180  -0.5902  19.2564   C.ar      1 RES2   0.0000
    18 H35      5.1792  -0.2665  19.3912   H         1 RES2   0.0000
    19 C28      3.0169  -5.9952  17.4454   C.2       1 RES2   0.0000
    20 C29      2.5194  -7.8266  16.0929   C.3       1 RES2   0.0000
    21 H36      1.7577  -8.0694  16.6246   H         1 RES2   0.0000
    22 H37      3.2857  -8.3241  16.3877   H         1 RES2   0.0000
    23 H38      2.3427  -8.0273  15.1700   H         1 RES2   0.0000
@<TRIPOS>BOND
     1     1     2    1
     2     3     1    1
     3     4    19    1
     4     5    19    2
     5     6     7    1
     6     8     1    1
     7     9     8    1
     8    10     1    1
     9    11    10   ar
    10    12    11    1
    11    13    11   ar
    12    14    13    1
    13    15    13   ar
    14    16    15    1
    15    17     6   ar
    16    18    17    1
    17    19     8    1
    18    20     4    1
    19    21    20    1
    20    22    20    1
    21    23    20    1
    22     6    10   ar
    23    15    17   ar
@<TRIPOS>SUBSTRUCTURE
     1 RES2        1 GROUP             0 ****  ****    0  
