@<TRIPOS>MOLECULE
OGEZUX
    80    81     1     0     0
SMALL
NO_CHARGES
****
Generated from the CSD

@<TRIPOS>ATOM
     1 C1       2.4617   3.8366  17.8827   C.3       1 RES1   0.0000
     2 H1       3.0299   3.3205  17.3066   H         1 RES1   0.0000
     3 H2       1.5522   3.7607  17.5879   H         1 RES1   0.0000
     4 H3       2.5352   3.5094  18.7824   H         1 RES1   0.0000
     5 O1       2.9639   5.7351  16.4379   O.3       1 RES1   0.0000
     6 N1       2.2376   6.1874  14.4171   N.am      1 RES1   0.0000
     7 H4       3.0123   6.5399  14.2954   H         1 RES1   0.0000
     8 C2       1.8647   2.3070  12.8581   C.3       1 RES1   0.0000
     9 H5       2.2367   2.1215  11.9815   H         1 RES1   0.0000
    10 H6       0.9226   2.0793  12.8369   H         1 RES1   0.0000
    11 C3       2.5668   1.4469  13.8946   C.3       1 RES1   0.0000
    12 H7       2.2357   1.6729  14.7789   H         1 RES1   0.0000
    13 H8       3.5191   1.6307  13.8754   H         1 RES1   0.0000
    14 C4       2.3324  -0.0337  13.6307   C.3       1 RES1   0.0000
    15 H9       1.3783  -0.2108  13.6307   H         1 RES1   0.0000
    16 H10      2.6775  -0.2597  12.7541   H         1 RES1   0.0000
    17 C5       2.6496  -3.9361  18.8075   C.3       1 RES1   0.0000
    18 H11      1.7038  -4.1502  18.8518   H         1 RES1   0.0000
    19 H12      3.0839  -4.3627  19.5627   H         1 RES1   0.0000
    20 C6       3.0467   9.0391  12.4786   C.ar      1 RES1   0.0000
    21 H13      3.8446   8.5770  12.3591   H         1 RES1   0.0000
    22 C7       0.6752   9.0813  12.5614   C.ar      1 RES1   0.0000
    23 H14     -0.1451   8.6495  12.4921   H         1 RES1   0.0000
    24 O2       0.0167   4.3231  12.3117   O.2       1 RES1   0.0000
    25 O3       4.7170  -3.2784  15.5400   O.2       1 RES1   0.0000
    26 O4       2.7779  -6.4095  16.2368   O.3       1 RES1   0.0000
    27 O5       3.0169  -6.7270  18.3923   O.2       1 RES1   0.0000
    28 O6       0.7524   5.4386  15.9630   O.2       1 RES1   0.0000
    29 N2       2.0097   3.7253  13.1490   N.am      1 RES1   0.0000
    30 H15      2.7444   3.9985  13.5035   H         1 RES1   0.0000
    31 C8       3.0002  -0.9140  14.6691   C.3       1 RES1   0.0000
    32 H16      2.6440  -0.6948  15.5457   H         1 RES1   0.0000
    33 H17      3.9516  -0.7218  14.6807   H         1 RES1   0.0000
    34 N3       2.7026  -3.8087  16.3707   N.am      1 RES1   0.0000
    35 H18      1.8507  -3.7758  16.2586   H         1 RES1   0.0000
    36 C9       1.8116   6.8755  12.0971   C.3       1 RES1   0.0000
    37 H19      2.6998   6.5736  11.8505   H         1 RES1   0.0000
    38 H20      1.2220   6.7136  11.3438   H         1 RES1   0.0000
    39 C10      1.8544   8.3612  12.3784   C.ar      1 RES1   0.0000
    40 C11      4.0976  -1.9343  19.1215   C.ar      1 RES1   0.0000
    41 H21      4.8221  -2.5161  19.1620   H         1 RES1   0.0000
    42 C12      2.8877   5.2902  17.8384   C.3       1 RES1   0.0000
    43 C13      1.8767   5.7523  15.6459   C.2       1 RES1   0.0000
    44 C14      1.3197   6.0609  13.3090   C.3       1 RES1   0.0000
    45 H22      0.4631   6.4420  13.5902   H         1 RES1   0.0000
    46 C15      1.0611   4.6106  12.8947   C.2       1 RES1   0.0000
    47 C16      2.7956  -2.4014  14.4071   C.3       1 RES1   0.0000
    48 H23      1.8470  -2.6038  14.4071   H         1 RES1   0.0000
    49 H24      3.1536  -2.6308  13.5363   H         1 RES1   0.0000
    50 C17      3.4847  -3.2177  15.4667   C.2       1 RES1   0.0000
    51 C18      3.2197  -4.5010  17.5301   C.3       1 RES1   0.0000
    52 H25      4.1869  -4.3425  17.5513   H         1 RES1   0.0000
    53 C19      2.8170  -2.4571  18.9250   C.ar      1 RES1   0.0000
    54 C20      1.7726  -1.5818  18.8595   C.ar      1 RES1   0.0000
    55 H26      0.9068  -1.8938  18.7266   H         1 RES1   0.0000
    56 C21      2.0200  -0.1973  18.9905   C.ar      1 RES1   0.0000
    57 H27      1.3104   0.4014  18.9404   H         1 RES1   0.0000
    58 C22      3.2671   0.2665  19.1870   C.ar      1 RES1   0.0000
    59 H28      3.4103   1.1805  19.2776   H         1 RES1   0.0000
    60 C23      4.3347   5.4150  18.2911   C.3       1 RES1   0.0000
    61 H29      4.6481   6.3054  18.1177   H         1 RES1   0.0000
    62 H30      4.8769   4.7877  17.8076   H         1 RES1   0.0000
    63 H31      4.3933   5.2312  19.2313   H         1 RES1   0.0000
    64 C24      3.0839  10.4051  12.7579   C.ar      1 RES1   0.0000
    65 H32      3.9004  10.8452  12.8196   H         1 RES1   0.0000
    66 C25      1.9102  11.0965  12.9371   C.ar      1 RES1   0.0000
    67 H33      1.9251  12.0072  13.1240   H         1 RES1   0.0000
    68 C26      0.7142  10.4270  12.8389   C.ar      1 RES1   0.0000
    69 H34     -0.0809  10.8908  12.9641   H         1 RES1   0.0000
    70 C27      4.3180  -0.5902  19.2564   C.ar      1 RES1   0.0000
    71 H35      5.1792  -0.2665  19.3912   H         1 RES1   0.0000
    72 C28      3.0169  -5.9952  17.4454   C.2       1 RES1   0.0000
    73 C29      2.5194  -7.8266  16.0929   C.3       1 RES1   0.0000
    74 H36      1.7577  -8.0694  16.6246   H         1 RES1   0.0000
    75 H37      3.2857  -8.3241  16.3877   H         1 RES1   0.0000
    76 H38      2.3427  -8.0273  15.1700   H         1 RES1   0.0000
    77 C30      1.9893   6.1908  18.6244   C.3       1 RES1   0.0000
    78 H39      1.0983   6.1419  18.2699   H         1 RES1   0.0000
    79 H40      2.3092   7.0930  18.5628   H         1 RES1   0.0000
    80 H41      1.9837   5.9142  19.5434   H         1 RES1   0.0000
@<TRIPOS>BOND
     1     1     2    1
     2     3     1    1
     3     4     1    1
     4     5    42    1
     5     6     7    1
     6     8     9    1
     7    10     8    1
     8    11     8    1
     9    12    11    1
    10    13    11    1
    11    14    11    1
    12    15    14    1
    13    16    14    1
    14    17    18    1
    15    19    17    1
    16    20    21    1
    17    22    23    1
    18    24    46    2
    19    25    50    2
    20    26    72    1
    21    27    72    2
    22    28    43    2
    23    29     8    1
    24    30    29    1
    25    31    14    1
    26    32    31    1
    27    33    31    1
    28    34    35    1
    29    36    37    1
    30    38    36    1
    31    39    20   ar
    32    40    41    1
    33    42     1    1
    34    43     5    1
    35    44     6    1
    36    45    44    1
    37    46    29   am
    38    47    31    1
    39    48    47    1
    40    49    47    1
    41    50    34   am
    42    51    17    1
    43    52    51    1
    44    53    17    1
    45    54    53   ar
    46    55    54    1
    47    56    54   ar
    48    57    56    1
    49    58    56   ar
    50    59    58    1
    51    60    42    1
    52    61    60    1
    53    62    60    1
    54    63    60    1
    55    64    20   ar
    56    65    64    1
    57    66    64   ar
    58    67    66    1
    59    68    22   ar
    60    69    68    1
    61    70    40   ar
    62    71    70    1
    63    72    51    1
    64    73    26    1
    65    74    73    1
    66    75    73    1
    67    76    73    1
    68    77    42    1
    69    78    77    1
    70    79    77    1
    71    80    77    1
    72     6    43   am
    73    22    39   ar
    74    34    51    1
    75    36    39    1
    76    36    44    1
    77    40    53   ar
    78    44    46    1
    79    47    50    1
    80    58    70   ar
    81    66    68   ar
@<TRIPOS>SUBSTRUCTURE
     1 RES1        1 GROUP             0 ****  ****    0  
@<TRIPOS>CRYSIN
    9.3000   16.8640   19.2660   90.0000   90.0000   90.0000    19     1
