@<TRIPOS>MOLECULE
02
    23    25     1     0     0
SMALL
NO_CHARGES
****
Generated from the CSD

@<TRIPOS>ATOM
     1 C5       5.7523  -3.1707   0.4952   C.ar      1 RES2   0.0000
     2 C6       5.0868  -6.8555   0.2168   C.ar      1 RES2   0.0000
     3 H4       4.8187  -7.5623   0.7591   H         1 RES2   0.0000
     4 C7       5.6467  -4.4649  -0.0496   C.ar      1 RES2   0.0000
     5 C9       5.3951  -2.9397   1.8413   C.ar      1 RES2   0.0000
     6 C10      4.9322  -5.3205   2.1213   C.ar      1 RES2   0.0000
     7 H6       4.6868  -6.0348   2.6636   H         1 RES2   0.0000
     8 C13      5.0009  -4.0407   2.6678   C.ar      1 RES2   0.0000
     9 C18      5.3925  -1.6420   2.4411   C.ar      1 RES2   0.0000
    10 H13      5.6292  -0.9041   1.9265   H         1 RES2   0.0000
    11 C19      5.2239  -5.5529   0.7763   C.ar      1 RES2   0.0000
    12 C23      5.9331  -4.7634  -1.4239   C.ar      1 RES2   0.0000
    13 H16      6.2327  -4.0844  -1.9840   H         1 RES2   0.0000
    14 C24      5.0536  -1.4593   3.7403   C.ar      1 RES2   0.0000
    15 H17      5.0527  -0.6014   4.0969   H         1 RES2   0.0000
    16 C26      5.7751  -6.0207  -1.9218   C.ar      1 RES2   0.0000
    17 H19      5.9550  -6.1848  -2.8198   H         1 RES2   0.0000
    18 C28      5.3410  -7.0800  -1.0945   C.ar      1 RES2   0.0000
    19 H23      5.2292  -7.9322  -1.4497   H         1 RES2   0.0000
    20 C30      4.6876  -3.7964   4.0396   C.ar      1 RES2   0.0000
    21 H26      4.4675  -4.5138   4.5901   H         1 RES2   0.0000
    22 C31      4.7016  -2.5532   4.5570   C.ar      1 RES2   0.0000
    23 H27      4.4798  -2.4173   5.4506   H         1 RES2   0.0000
@<TRIPOS>BOND
     1     1     4   ar
     2     2     3    1
     3     4    11   ar
     4     5     1   ar
     5     6     7    1
     6     8     5   ar
     7     9     5   ar
     8    10     9    1
     9    11     2   ar
    10    12     4   ar
    11    13    12    1
    12    14     9   ar
    13    15    14    1
    14    16    12   ar
    15    17    16    1
    16    18     2   ar
    17    19    18    1
    18    20     8   ar
    19    21    20    1
    20    22    14   ar
    21    23    22    1
    22     6     8   ar
    23     6    11   ar
    24    16    18   ar
    25    20    22   ar
@<TRIPOS>SUBSTRUCTURE
     1 RES2        1 GROUP             0 ****  ****    0  
