@<TRIPOS>MOLECULE
01
    25    26     1     0     0
SMALL
NO_CHARGES
****
Generated from the CSD

@<TRIPOS>ATOM
     1 C1       4.2125   0.5944   6.7690   C.ar      1 RES1   0.0000
     2 H1       4.8248   0.1681   7.3250   H         1 RES1   0.0000
     3 C2       1.3441   2.6396   4.4038   C.ar      1 RES1   0.0000
     4 H2       1.5722   3.3990   3.9187   H         1 RES1   0.0000
     5 C3       3.7078   2.3533   5.2018   C.ar      1 RES1   0.0000
     6 C4       0.6128   0.2902   5.7857   C.ar      1 RES1   0.0000
     7 C8       0.0515   2.2023   4.4147   C.ar      1 RES1   0.0000
     8 H5      -0.6000   2.6928   3.9681   H         1 RES1   0.0000
     9 C12      1.9644   0.7761   5.8693   C.ar      1 RES1   0.0000
    10 N4       0.2990  -0.9065   6.4637   N.3       1 RES1   0.0000
    11 C14      2.3381   1.9403   5.1289   C.ar      1 RES1   0.0000
    12 C17      4.6184   1.6881   5.9888   C.ar      1 RES1   0.0000
    13 H12      5.5060   1.9646   6.0042   H         1 RES1   0.0000
    14 C21      2.9190   0.1538   6.7128   C.ar      1 RES1   0.0000
    15 H14      2.6604  -0.5678   7.2401   H         1 RES1   0.0000
    16 C25     -0.3133   1.0254   5.0878   C.ar      1 RES1   0.0000
    17 H18     -1.1975   0.7385   5.0615   H         1 RES1   0.0000
    18 C27     -1.1206  -1.1270   6.7323   C.3       1 RES1   0.0000
    19 H20     -1.5049  -0.3272   7.0976   H         1 RES1   0.0000
    20 H21     -1.2193  -1.8456   7.3606   H         1 RES1   0.0000
    21 H22     -1.5695  -1.3529   5.9137   H         1 RES1   0.0000
    22 C33      0.9136  -2.1056   5.9044   C.3       1 RES1   0.0000
    23 H31      0.3913  -2.4173   5.1629   H         1 RES1   0.0000
    24 H32      0.9520  -2.7885   6.5769   H         1 RES1   0.0000
    25 H33      1.8027  -1.8999   5.6068   H         1 RES1   0.0000
@<TRIPOS>BOND
     1     1     2    1
     2     3     4    1
     3     6     9   ar
     4     7     3   ar
     5     8     7    1
     6     9    11   ar
     7    10     6    1
     8    11     3   ar
     9    12     1   ar
    10    13    12    1
    11    14     1   ar
    12    15    14    1
    13    16     6   ar
    14    17    16    1
    15    18    10    1
    16    19    18    1
    17    20    18    1
    18    21    18    1
    19    22    10    1
    20    23    22    1
    21    24    22    1
    22    25    22    1
    23     5    11   ar
    24     5    12   ar
    25     7    16   ar
    26     9    14   ar
@<TRIPOS>SUBSTRUCTURE
     1 RES1        1 GROUP             0 ****  ****    0  
