@<TRIPOS>MOLECULE
OGIWAE
    80    84     1     0     0
SMALL
NO_CHARGES
****
Generated from the CSD

@<TRIPOS>ATOM
     1 S1       4.3266   3.7431   4.2787   S.o2      1 RES1   0.0000
     2 O1       5.7418   3.7560   4.4800   O.2       1 RES1   0.0000
     3 O2       5.9992   2.1498  -1.5088   O.2       1 RES1   0.0000
     4 O3       3.5726   4.9155   4.6104   O.2       1 RES1   0.0000
     5 C1       4.2125   0.5944   6.7690   C.ar      1 RES1   0.0000
     6 H1       4.8248   0.1681   7.3250   H         1 RES1   0.0000
     7 N1       5.1505  -1.3119  -1.0172   N.3       1 RES1   0.0000
     8 C2       1.3441   2.6396   4.4038   C.ar      1 RES1   0.0000
     9 H2       1.5722   3.3990   3.9187   H         1 RES1   0.0000
    10 C3       3.7078   2.3533   5.2018   C.ar      1 RES1   0.0000
    11 C4       0.6128   0.2902   5.7857   C.ar      1 RES1   0.0000
    12 N2       4.6023   1.0970  -0.0814   N.am      1 RES1   0.0000
    13 H3       4.2911   0.3389   0.1781   H         1 RES1   0.0000
    14 C5       5.7523  -3.1707   0.4952   C.ar      1 RES1   0.0000
    15 N3       4.0381   3.4639   2.7195   N.pl3     1 RES1   0.0000
    16 C6       5.0868  -6.8555   0.2168   C.ar      1 RES1   0.0000
    17 H4       4.8187  -7.5623   0.7591   H         1 RES1   0.0000
    18 C7       5.6467  -4.4649  -0.0496   C.ar      1 RES1   0.0000
    19 C8       0.0515   2.2023   4.4147   C.ar      1 RES1   0.0000
    20 H5      -0.6000   2.6928   3.9681   H         1 RES1   0.0000
    21 C9       5.3951  -2.9397   1.8413   C.ar      1 RES1   0.0000
    22 C10      4.9322  -5.3205   2.1213   C.ar      1 RES1   0.0000
    23 H6       4.6868  -6.0348   2.6636   H         1 RES1   0.0000
    24 C11      5.6371  -0.1985  -1.8437   C.3       1 RES1   0.0000
    25 H7       6.6022  -0.3246  -1.9594   H         1 RES1   0.0000
    26 C12      1.9644   0.7761   5.8693   C.ar      1 RES1   0.0000
    27 C13      5.0009  -4.0407   2.6678   C.ar      1 RES1   0.0000
    28 N4       0.2990  -0.9065   6.4637   N.3       1 RES1   0.0000
    29 C14      2.3381   1.9403   5.1289   C.ar      1 RES1   0.0000
    30 C15      6.2443  -2.0298  -0.3513   C.3       1 RES1   0.0000
    31 H8       6.7376  -1.4098   0.2083   H         1 RES1   0.0000
    32 H9       6.8537  -2.3733  -1.0222   H         1 RES1   0.0000
    33 C16      4.5269   2.2400   2.0846   C.3       1 RES1   0.0000
    34 H10      4.1042   1.4654   2.4883   H         1 RES1   0.0000
    35 H11      5.4860   2.1638   2.2060   H         1 RES1   0.0000
    36 C17      4.6184   1.6881   5.9888   C.ar      1 RES1   0.0000
    37 H12      5.5060   1.9646   6.0042   H         1 RES1   0.0000
    38 C18      5.3925  -1.6420   2.4411   C.ar      1 RES1   0.0000
    39 H13      5.6292  -0.9041   1.9265   H         1 RES1   0.0000
    40 C19      5.2239  -5.5529   0.7763   C.ar      1 RES1   0.0000
    41 C20      5.4419   1.1266  -1.1219   C.2       1 RES1   0.0000
    42 C21      2.9190   0.1538   6.7128   C.ar      1 RES1   0.0000
    43 H14      2.6604  -0.5678   7.2401   H         1 RES1   0.0000
    44 C22      5.0239  -0.0971  -3.2473   C.3       1 RES1   0.0000
    45 H15      5.4650   0.6480  -3.7050   H         1 RES1   0.0000
    46 C23      5.9331  -4.7634  -1.4239   C.ar      1 RES1   0.0000
    47 H16      6.2327  -4.0844  -1.9840   H         1 RES1   0.0000
    48 C24      5.0536  -1.4593   3.7403   C.ar      1 RES1   0.0000
    49 H17      5.0527  -0.6014   4.0969   H         1 RES1   0.0000
    50 C25     -0.3133   1.0254   5.0878   C.ar      1 RES1   0.0000
    51 H18     -1.1975   0.7385   5.0615   H         1 RES1   0.0000
    52 C26      5.7751  -6.0207  -1.9218   C.ar      1 RES1   0.0000
    53 H19      5.9550  -6.1848  -2.8198   H         1 RES1   0.0000
    54 C27     -1.1206  -1.1270   6.7323   C.3       1 RES1   0.0000
    55 H20     -1.5049  -0.3272   7.0976   H         1 RES1   0.0000
    56 H21     -1.2193  -1.8456   7.3606   H         1 RES1   0.0000
    57 H22     -1.5695  -1.3529   5.9137   H         1 RES1   0.0000
    58 C28      5.3410  -7.0800  -1.0945   C.ar      1 RES1   0.0000
    59 H23      5.2292  -7.9322  -1.4497   H         1 RES1   0.0000
    60 C29      4.1994   2.2997   0.6223   C.3       1 RES1   0.0000
    61 H24      3.2439   2.4263   0.5152   H         1 RES1   0.0000
    62 H25      4.6466   3.0640   0.2275   H         1 RES1   0.0000
    63 C30      4.6876  -3.7964   4.0396   C.ar      1 RES1   0.0000
    64 H26      4.4675  -4.5138   4.5901   H         1 RES1   0.0000
    65 C31      4.7016  -2.5532   4.5570   C.ar      1 RES1   0.0000
    66 H27      4.4798  -2.4173   5.4506   H         1 RES1   0.0000
    67 C32      5.3095  -1.3596  -4.0536   C.3       1 RES1   0.0000
    68 H28      6.2161  -1.6387  -3.9023   H         1 RES1   0.0000
    69 H29      5.1837  -1.1783  -4.9875   H         1 RES1   0.0000
    70 H30      4.7104  -2.0564  -3.7790   H         1 RES1   0.0000
    71 C33      0.9136  -2.1056   5.9044   C.3       1 RES1   0.0000
    72 H31      0.3913  -2.4173   5.1629   H         1 RES1   0.0000
    73 H32      0.9520  -2.7885   6.5769   H         1 RES1   0.0000
    74 H33      1.8027  -1.8999   5.6068   H         1 RES1   0.0000
    75 C34      3.5609   0.1992  -3.2202   C.3       1 RES1   0.0000
    76 H34      3.1033  -0.4915  -2.7349   H         1 RES1   0.0000
    77 H35      3.2247   0.2354  -4.1188   H         1 RES1   0.0000
    78 H36      3.4133   1.0450  -2.7897   H         1 RES1   0.0000
    79 H37      3.2579   3.7533   2.4088   H         1 RES1   0.0000
    80 H38      4.6903  -1.8793  -1.5291   H         1 RES1   0.0000
@<TRIPOS>BOND
     1     1     2    2
     2     3    41    2
     3     4     1    2
     4     5     6    1
     5     7    24    1
     6     8     9    1
     7    10     1    1
     8    11    26   ar
     9    12    13    1
    10    14    18   ar
    11    15     1    1
    12    16    17    1
    13    18    40   ar
    14    19     8   ar
    15    20    19    1
    16    21    14   ar
    17    22    23    1
    18    24    25    1
    19    26    29   ar
    20    27    21   ar
    21    28    11    1
    22    29     8   ar
    23    30     7    1
    24    31    30    1
    25    32    30    1
    26    33    15    1
    27    34    33    1
    28    35    33    1
    29    36     5   ar
    30    37    36    1
    31    38    21   ar
    32    39    38    1
    33    40    16   ar
    34    41    12   am
    35    42     5   ar
    36    43    42    1
    37    44    24    1
    38    45    44    1
    39    46    18   ar
    40    47    46    1
    41    48    38   ar
    42    49    48    1
    43    50    11   ar
    44    51    50    1
    45    52    46   ar
    46    53    52    1
    47    54    28    1
    48    55    54    1
    49    56    54    1
    50    57    54    1
    51    58    16   ar
    52    59    58    1
    53    60    12    1
    54    61    60    1
    55    62    60    1
    56    63    27   ar
    57    64    63    1
    58    65    48   ar
    59    66    65    1
    60    67    44    1
    61    68    67    1
    62    69    67    1
    63    70    67    1
    64    71    28    1
    65    72    71    1
    66    73    71    1
    67    74    71    1
    68    75    44    1
    69    76    75    1
    70    77    75    1
    71    78    75    1
    72    79    15    1
    73    80     7    1
    74    10    29   ar
    75    10    36   ar
    76    14    30    1
    77    19    50   ar
    78    22    27   ar
    79    22    40   ar
    80    24    41    1
    81    26    42   ar
    82    33    60    1
    83    52    58   ar
    84    63    65   ar
@<TRIPOS>SUBSTRUCTURE
     1 RES1        1 GROUP             0 ****  ****    0  
@<TRIPOS>CRYSIN
    8.7342   12.9336   27.4037   90.0000   90.0000   90.0000    19     1
