@<TRIPOS>MOLECULE
OHUMOV
    86    91     1     0     0
SMALL
NO_CHARGES
****
Generated from the CSD

@<TRIPOS>ATOM
     1 O1       1.4205   8.9545   7.3867   O.3       1 RES1   0.0000
     2 O2       0.6485   3.5858  10.5810   O.2       1 RES1   0.0000
     3 N1      -1.3397  11.1690  10.5651   N.pl3     1 RES1   0.0000
     4 N2       4.4073   7.3638   4.0597   N.pl3     1 RES1   0.0000
     5 N3       0.9961   5.3865   9.2002   N.am      1 RES1   0.0000
     6 N4      -1.2140   4.0731   6.5301   N.3       1 RES1   0.0000
     7 H1      -1.9138   3.9473   7.0138   H         1 RES1   0.0000
     8 N5      -3.8612   3.2521   6.4425   N.pl3     1 RES1   0.0000
     9 H2      -4.6199   3.0287   6.7822   H         1 RES1   0.0000
    10 H3      -3.2266   3.5261   6.9526   H         1 RES1   0.0000
    11 N6      -4.7160   2.7338   4.3878   N.ar      1 RES1   0.0000
    12 C1       0.3084   7.9143  10.7055   C.ar      1 RES1   0.0000
    13 H4       0.3774   7.2036  11.3008   H         1 RES1   0.0000
    14 C2      -0.4508   8.9850  11.0656   C.ar      1 RES1   0.0000
    15 H5      -0.8861   8.9868  11.8877   H         1 RES1   0.0000
    16 C3      -0.5854  10.0908  10.2038   C.ar      1 RES1   0.0000
    17 C4       0.0558  10.0062   8.9641   C.ar      1 RES1   0.0000
    18 H6      -0.0390  10.6979   8.3508   H         1 RES1   0.0000
    19 C5       3.4013   5.8854   7.2826   C.ar      1 RES1   0.0000
    20 H7       3.5844   5.1220   7.7807   H         1 RES1   0.0000
    21 C6       4.0381   6.0470   6.0777   C.ar      1 RES1   0.0000
    22 H8       4.6387   5.4007   5.7836   H         1 RES1   0.0000
    23 C7       3.7905   7.1815   5.2831   C.ar      1 RES1   0.0000
    24 C8       2.8744   8.1135   5.7800   C.ar      1 RES1   0.0000
    25 H9       2.6740   8.8702   5.2771   H         1 RES1   0.0000
    26 C9       1.8370   6.6243   9.1428   C.3       1 RES1   0.0000
    27 C10      0.9913   7.8307   9.4909   C.ar      1 RES1   0.0000
    28 C11      0.8308   8.9031   8.6364   C.ar      1 RES1   0.0000
    29 C12      2.4958   6.8075   7.7927   C.ar      1 RES1   0.0000
    30 C13      2.2596   7.9288   7.0090   C.ar      1 RES1   0.0000
    31 C14      2.8300   6.3194  10.2554   C.ar      1 RES1   0.0000
    32 C15      3.9408   7.0368  10.6431   C.ar      1 RES1   0.0000
    33 H10      4.2082   7.7959  10.1774   H         1 RES1   0.0000
    34 C16      4.6450   6.5917  11.7508   C.ar      1 RES1   0.0000
    35 H11      5.4044   7.0551  12.0245   H         1 RES1   0.0000
    36 C17      4.2459   5.4762  12.4541   C.ar      1 RES1   0.0000
    37 H12      4.7230   5.2150  13.2091   H         1 RES1   0.0000
    38 C18      3.1560   4.7478  12.0569   C.ar      1 RES1   0.0000
    39 H13      2.8920   3.9886  12.5250   H         1 RES1   0.0000
    40 C19      2.4555   5.1765  10.9347   C.ar      1 RES1   0.0000
    41 C20      1.2720   4.5915  10.2686   C.2       1 RES1   0.0000
    42 C21     -1.8277  11.3733  11.9201   C.3       1 RES1   0.0000
    43 H14     -1.7840  12.3178  12.1349   H         1 RES1   0.0000
    44 H15     -1.2492  10.9009  12.5394   H         1 RES1   0.0000
    45 C22     -3.2243  10.8962  12.0977   C.3       1 RES1   0.0000
    46 H16     -3.8073  11.3935  11.5192   H         1 RES1   0.0000
    47 H17     -3.4921  11.0263  13.0098   H         1 RES1   0.0000
    48 H18     -3.2740   9.9639  11.8781   H         1 RES1   0.0000
    49 C23     -1.8353  12.2721   9.3925   C.3       1 RES1   0.0000
    50 H19     -1.7904  11.9209   8.4900   H         1 RES1   0.0000
    51 H20     -2.7087  12.6542   9.5677   H         1 RES1   0.0000
    52 C24     -0.8745  13.0526   9.6794   C.3       1 RES1   0.0000
    53 H21     -0.8041  13.1377  10.6335   H         1 RES1   0.0000
    54 H22     -1.0377  13.9167   9.2929   H         1 RES1   0.0000
    55 H23     -0.0555  12.6950   9.3289   H         1 RES1   0.0000
    56 C25      4.1000   8.5346   3.2393   C.3       1 RES1   0.0000
    57 H24      3.1441   8.6937   3.2789   H         1 RES1   0.0000
    58 H25      4.3226   8.3303   2.3175   H         1 RES1   0.0000
    59 C26      4.8097   9.8050   3.6293   C.3       1 RES1   0.0000
    60 H26      4.5895  10.0280   4.5366   H         1 RES1   0.0000
    61 H27      4.5327  10.5164   3.0472   H         1 RES1   0.0000
    62 H28      5.7578   9.6782   3.5513   H         1 RES1   0.0000
    63 C27      5.5247   6.5198   3.6461   C.3       1 RES1   0.0000
    64 H29      5.6255   6.5883   2.6836   H         1 RES1   0.0000
    65 H30      5.3097   5.5962   3.8525   H         1 RES1   0.0000
    66 C28      6.8327   6.8656   4.2918   C.3       1 RES1   0.0000
    67 H31      7.0404   7.7870   4.1202   H         1 RES1   0.0000
    68 H32      7.5252   6.3078   3.9306   H         1 RES1   0.0000
    69 H33      6.7692   6.7232   5.2399   H         1 RES1   0.0000
    70 C29     -0.1899   5.2175   8.3988   C.3       1 RES1   0.0000
    71 H34     -0.5280   6.0912   8.1479   H         1 RES1   0.0000
    72 H35     -0.8710   4.7799   8.9341   H         1 RES1   0.0000
    73 C30      0.0397   4.4166   7.1614   C.3       1 RES1   0.0000
    74 H36      0.5837   4.9265   6.5421   H         1 RES1   0.0000
    75 H37      0.5209   3.6052   7.3870   H         1 RES1   0.0000
    76 C31     -1.2914   3.9603   5.3131   C.3       1 RES1   0.0000
    77 H38     -0.5734   3.3561   5.0647   H         1 RES1   0.0000
    78 H39     -1.0444   4.8289   4.9579   H         1 RES1   0.0000
    79 C32     -2.4505   3.5322   4.5234   C.ar      1 RES1   0.0000
    80 C33     -3.6709   3.1737   5.1175   C.ar      1 RES1   0.0000
    81 C34     -4.5543   2.6516   3.0736   C.ar      1 RES1   0.0000
    82 H40     -5.2714   2.3425   2.5696   H         1 RES1   0.0000
    83 C35     -3.4205   2.9873   2.4123   C.ar      1 RES1   0.0000
    84 H41     -3.3643   2.9240   1.4858   H         1 RES1   0.0000
    85 C36     -2.3579   3.4218   3.1660   C.ar      1 RES1   0.0000
    86 H42     -1.5599   3.6465   2.7436   H         1 RES1   0.0000
@<TRIPOS>BOND
     1     1    28    1
     2     2    41    2
     3     3    16    1
     4     4    23    1
     5     5    26    1
     6     6     7    1
     7     8     9    1
     8    10     8    1
     9    11    80   ar
    10    12    13    1
    11    14    12   ar
    12    15    14    1
    13    16    14   ar
    14    17    16   ar
    15    18    17    1
    16    19    20    1
    17    21    19   ar
    18    22    21    1
    19    23    21   ar
    20    24    23   ar
    21    25    24    1
    22    26    27    1
    23    27    12   ar
    24    28    17   ar
    25    29    19   ar
    26    30     1    1
    27    31    26    1
    28    32    31   ar
    29    33    32    1
    30    34    32   ar
    31    35    34    1
    32    36    34   ar
    33    37    36    1
    34    38    36   ar
    35    39    38    1
    36    40    31   ar
    37    41     5   am
    38    42     3    1
    39    43    42    1
    40    44    42    1
    41    45    42    1
    42    46    45    1
    43    47    45    1
    44    48    45    1
    45    49     3    1
    46    50    49    1
    47    51    49    1
    48    52    49    1
    49    53    52    1
    50    54    52    1
    51    55    52    1
    52    56     4    1
    53    57    56    1
    54    58    56    1
    55    59    56    1
    56    60    59    1
    57    61    59    1
    58    62    59    1
    59    63     4    1
    60    64    63    1
    61    65    63    1
    62    66    63    1
    63    67    66    1
    64    68    66    1
    65    69    66    1
    66    70     5    1
    67    71    70    1
    68    72    70    1
    69    73     6    1
    70    74    73    1
    71    75    73    1
    72    76     6    1
    73    77    76    1
    74    78    76    1
    75    79    76    1
    76    80     8    1
    77    81    11   ar
    78    82    81    1
    79    83    81   ar
    80    84    83    1
    81    85    79   ar
    82    86    85    1
    83    24    30   ar
    84    26    29    1
    85    27    28   ar
    86    29    30   ar
    87    38    40   ar
    88    40    41    1
    89    70    73    1
    90    79    80   ar
    91    83    85   ar
@<TRIPOS>SUBSTRUCTURE
     1 RES1        1 GROUP             0 ****  ****    0  
@<TRIPOS>CRYSIN
   11.3030   11.7420   12.9660   67.7700   89.1900   86.4700     2     1
