@<TRIPOS>MOLECULE
01
    63    67     1     0     0
SMALL
NO_CHARGES
****
Generated from the CSD

@<TRIPOS>ATOM
     1 O1       1.4205   8.9545   7.3867   O.3       1 RES1   0.0000
     2 O2       0.6485   3.5858  10.5810   O.2       1 RES1   0.0000
     3 N1      -1.3397  11.1690  10.5651   N.pl3     1 RES1   0.0000
     4 N2       4.4073   7.3638   4.0597   N.pl3     1 RES1   0.0000
     5 N3       0.9961   5.3865   9.2002   N.am      1 RES1   0.0000
     6 C1       0.3084   7.9143  10.7055   C.ar      1 RES1   0.0000
     7 H4       0.3774   7.2036  11.3008   H         1 RES1   0.0000
     8 C2      -0.4508   8.9850  11.0656   C.ar      1 RES1   0.0000
     9 H5      -0.8861   8.9868  11.8877   H         1 RES1   0.0000
    10 C3      -0.5854  10.0908  10.2038   C.ar      1 RES1   0.0000
    11 C4       0.0558  10.0062   8.9641   C.ar      1 RES1   0.0000
    12 H6      -0.0390  10.6979   8.3508   H         1 RES1   0.0000
    13 C5       3.4013   5.8854   7.2826   C.ar      1 RES1   0.0000
    14 H7       3.5844   5.1220   7.7807   H         1 RES1   0.0000
    15 C6       4.0381   6.0470   6.0777   C.ar      1 RES1   0.0000
    16 H8       4.6387   5.4007   5.7836   H         1 RES1   0.0000
    17 C7       3.7905   7.1815   5.2831   C.ar      1 RES1   0.0000
    18 C8       2.8744   8.1135   5.7800   C.ar      1 RES1   0.0000
    19 H9       2.6740   8.8702   5.2771   H         1 RES1   0.0000
    20 C9       1.8370   6.6243   9.1428   C.3       1 RES1   0.0000
    21 C10      0.9913   7.8307   9.4909   C.ar      1 RES1   0.0000
    22 C11      0.8308   8.9031   8.6364   C.ar      1 RES1   0.0000
    23 C12      2.4958   6.8075   7.7927   C.ar      1 RES1   0.0000
    24 C13      2.2596   7.9288   7.0090   C.ar      1 RES1   0.0000
    25 C14      2.8300   6.3194  10.2554   C.ar      1 RES1   0.0000
    26 C15      3.9408   7.0368  10.6431   C.ar      1 RES1   0.0000
    27 H10      4.2082   7.7959  10.1774   H         1 RES1   0.0000
    28 C16      4.6450   6.5917  11.7508   C.ar      1 RES1   0.0000
    29 H11      5.4044   7.0551  12.0245   H         1 RES1   0.0000
    30 C17      4.2459   5.4762  12.4541   C.ar      1 RES1   0.0000
    31 H12      4.7230   5.2150  13.2091   H         1 RES1   0.0000
    32 C18      3.1560   4.7478  12.0569   C.ar      1 RES1   0.0000
    33 H13      2.8920   3.9886  12.5250   H         1 RES1   0.0000
    34 C19      2.4555   5.1765  10.9347   C.ar      1 RES1   0.0000
    35 C20      1.2720   4.5915  10.2686   C.2       1 RES1   0.0000
    36 C21     -1.8277  11.3733  11.9201   C.3       1 RES1   0.0000
    37 H14     -1.7840  12.3178  12.1349   H         1 RES1   0.0000
    38 H15     -1.2492  10.9009  12.5394   H         1 RES1   0.0000
    39 C22     -3.2243  10.8962  12.0977   C.3       1 RES1   0.0000
    40 H16     -3.8073  11.3935  11.5192   H         1 RES1   0.0000
    41 H17     -3.4921  11.0263  13.0098   H         1 RES1   0.0000
    42 H18     -3.2740   9.9639  11.8781   H         1 RES1   0.0000
    43 C23     -1.8353  12.2721   9.3925   C.3       1 RES1   0.0000
    44 H19     -1.7904  11.9209   8.4900   H         1 RES1   0.0000
    45 H20     -2.7087  12.6542   9.5677   H         1 RES1   0.0000
    46 C24     -0.8745  13.0526   9.6794   C.3       1 RES1   0.0000
    47 H21     -0.8041  13.1377  10.6335   H         1 RES1   0.0000
    48 H22     -1.0377  13.9167   9.2929   H         1 RES1   0.0000
    49 H23     -0.0555  12.6950   9.3289   H         1 RES1   0.0000
    50 C25      4.1000   8.5346   3.2393   C.3       1 RES1   0.0000
    51 H24      3.1441   8.6937   3.2789   H         1 RES1   0.0000
    52 H25      4.3226   8.3303   2.3175   H         1 RES1   0.0000
    53 C26      4.8097   9.8050   3.6293   C.3       1 RES1   0.0000
    54 H26      4.5895  10.0280   4.5366   H         1 RES1   0.0000
    55 H27      4.5327  10.5164   3.0472   H         1 RES1   0.0000
    56 H28      5.7578   9.6782   3.5513   H         1 RES1   0.0000
    57 C27      5.5247   6.5198   3.6461   C.3       1 RES1   0.0000
    58 H29      5.6255   6.5883   2.6836   H         1 RES1   0.0000
    59 H30      5.3097   5.5962   3.8525   H         1 RES1   0.0000
    60 C28      6.8327   6.8656   4.2918   C.3       1 RES1   0.0000
    61 H31      7.0404   7.7870   4.1202   H         1 RES1   0.0000
    62 H32      7.5252   6.3078   3.9306   H         1 RES1   0.0000
    63 H33      6.7692   6.7232   5.2399   H         1 RES1   0.0000
@<TRIPOS>BOND
     1     1    22    1
     2     2    35    2
     3     3    10    1
     4     4    17    1
     5     5    20    1
     6     6     7    1
     7     8     6   ar
     8     9     8    1
     9    10     8   ar
    10    11    10   ar
    11    12    11    1
    12    13    14    1
    13    15    13   ar
    14    16    15    1
    15    17    15   ar
    16    18    17   ar
    17    19    18    1
    18    20    21    1
    19    21     6   ar
    20    22    11   ar
    21    23    13   ar
    22    24     1    1
    23    25    20    1
    24    26    25   ar
    25    27    26    1
    26    28    26   ar
    27    29    28    1
    28    30    28   ar
    29    31    30    1
    30    32    30   ar
    31    33    32    1
    32    34    25   ar
    33    35     5   am
    34    36     3    1
    35    37    36    1
    36    38    36    1
    37    39    36    1
    38    40    39    1
    39    41    39    1
    40    42    39    1
    41    43     3    1
    42    44    43    1
    43    45    43    1
    44    46    43    1
    45    47    46    1
    46    48    46    1
    47    49    46    1
    48    50     4    1
    49    51    50    1
    50    52    50    1
    51    53    50    1
    52    54    53    1
    53    55    53    1
    54    56    53    1
    55    57     4    1
    56    58    57    1
    57    59    57    1
    58    60    57    1
    59    61    60    1
    60    62    60    1
    61    63    60    1
    62    18    24   ar
    63    20    23    1
    64    21    22   ar
    65    23    24   ar
    66    32    34   ar
    67    34    35    1
@<TRIPOS>SUBSTRUCTURE
     1 RES1        1 GROUP             0 ****  ****    0  
