@<TRIPOS>MOLECULE
02
    12    12     1     0     0
SMALL
NO_CHARGES
****
Generated from the CSD

@<TRIPOS>ATOM
     1 N5      -3.8612   3.2521   6.4425   N.pl3     1 RES2   0.0000
     2 H2      -4.6199   3.0287   6.7822   H         1 RES2   0.0000
     3 H3      -3.2266   3.5261   6.9526   H         1 RES2   0.0000
     4 N6      -4.7160   2.7338   4.3878   N.ar      1 RES2   0.0000
     5 C32     -2.4505   3.5322   4.5234   C.ar      1 RES2   0.0000
     6 C33     -3.6709   3.1737   5.1175   C.ar      1 RES2   0.0000
     7 C34     -4.5543   2.6516   3.0736   C.ar      1 RES2   0.0000
     8 H40     -5.2714   2.3425   2.5696   H         1 RES2   0.0000
     9 C35     -3.4205   2.9873   2.4123   C.ar      1 RES2   0.0000
    10 H41     -3.3643   2.9240   1.4858   H         1 RES2   0.0000
    11 C36     -2.3579   3.4218   3.1660   C.ar      1 RES2   0.0000
    12 H42     -1.5599   3.6465   2.7436   H         1 RES2   0.0000
@<TRIPOS>BOND
     1     1     2    1
     2     3     1    1
     3     4     6   ar
     4     6     1    1
     5     7     4   ar
     6     8     7    1
     7     9     7   ar
     8    10     9    1
     9    11     5   ar
    10    12    11    1
    11     5     6   ar
    12     9    11   ar
@<TRIPOS>SUBSTRUCTURE
     1 RES2        1 GROUP             0 ****  ****    0  
