@<TRIPOS>MOLECULE
02
    51    56     1     0     0
SMALL
NO_CHARGES
****
Generated from the CSD

@<TRIPOS>ATOM
     1 O1       4.0415   9.3019  10.2835   O.3       1 RES2   0.0000
     2 O2       3.6169  11.3949   9.6026   O.2       1 RES2   0.0000
     3 O3       5.1778   5.7446  11.6576   O.3       1 RES2   0.0000
     4 N2       3.0442   6.0306   6.6478   N.2       1 RES2   0.0000
     5 N3       6.7975   7.6235  15.6905   N.pl3     1 RES2   0.0000
     6 N4       3.8812   7.9674   7.4480   N.2       1 RES2   0.0000
     7 C8       3.5597   5.7446   7.8975   C.ar      1 RES2   0.0000
     8 C9       4.0747   6.9602   8.3772   C.ar      1 RES2   0.0000
     9 C10      4.6594   7.0290   9.6603   C.ar      1 RES2   0.0000
    10 C11      5.1784   8.3212  10.2447   C.3       1 RES2   0.0000
    11 C12      5.6513   8.1217  11.6576   C.ar      1 RES2   0.0000
    12 C13      6.1174   9.1898  12.4321   C.ar      1 RES2   0.0000
    13 H9       6.1759  10.0506  12.0332   H         1 RES2   0.0000
    14 C14      6.4930   9.0474  13.7397   C.ar      1 RES2   0.0000
    15 H10      6.8059   9.8030  14.2229   H         1 RES2   0.0000
    16 C15      6.4229   7.7866  14.3838   C.ar      1 RES2   0.0000
    17 C16      6.7050   6.3175  16.3515   C.3       1 RES2   0.0000
    18 H11      6.9605   5.6110  15.7071   H         1 RES2   0.0000
    19 H12      7.3488   6.2890  17.1029   H         1 RES2   0.0000
    20 C17      5.3143   6.0227  16.8808   C.3       1 RES2   0.0000
    21 H13      4.6911   5.9353  16.1300   H         1 RES2   0.0000
    22 H14      5.3298   5.1884  17.3937   H         1 RES2   0.0000
    23 H15      5.0223   6.7568  17.4622   H         1 RES2   0.0000
    24 C25      3.6218   4.5556   8.6309   C.ar      1 RES2   0.0000
    25 H21      3.2833   3.7390   8.2850   H         1 RES2   0.0000
    26 C26      4.1954   4.6273   9.8709   C.ar      1 RES2   0.0000
    27 H22      4.2647   3.8402  10.3988   H         1 RES2   0.0000
    28 C27      4.6859   5.8468  10.3791   C.ar      1 RES2   0.0000
    29 C28      4.3781  10.4486   9.6560   C.2       1 RES2   0.0000
    30 C29      5.7299  10.3150   9.0912   C.ar      1 RES2   0.0000
    31 C30      6.4785  11.2338   8.3632   C.ar      1 RES2   0.0000
    32 H23      6.1542  12.1093   8.1849   H         1 RES2   0.0000
    33 C31      7.7143  10.8171   7.9121   C.ar      1 RES2   0.0000
    34 H24      8.2628  11.4185   7.4206   H         1 RES2   0.0000
    35 C32      8.1700   9.5151   8.1712   C.ar      1 RES2   0.0000
    36 H25      9.0070   9.2360   7.8179   H         1 RES2   0.0000
    37 C33      7.4277   8.6317   8.9297   C.ar      1 RES2   0.0000
    38 H26      7.7572   7.7640   9.1315   H         1 RES2   0.0000
    39 C34      6.1799   9.0493   9.3903   C.ar      1 RES2   0.0000
    40 C35      7.2324   8.7221  16.5273   C.3       1 RES2   0.0000
    41 H27      6.7905   9.5534  16.2208   H         1 RES2   0.0000
    42 H28      6.9421   8.5511  17.4579   H         1 RES2   0.0000
    43 C36      8.7339   8.9294  16.5119   C.3       1 RES2   0.0000
    44 H29      9.0313   9.0994  15.5932   H         1 RES2   0.0000
    45 H30      8.9631   9.6979  17.0740   H         1 RES2   0.0000
    46 H31      9.1784   8.1266  16.8572   H         1 RES2   0.0000
    47 C37      5.9621   6.7067  13.6187   C.ar      1 RES2   0.0000
    48 H32      5.8992   5.8439  14.0103   H         1 RES2   0.0000
    49 C38      5.5988   6.8904  12.2994   C.ar      1 RES2   0.0000
    50 C39      3.2703   7.3621   6.4481   C.2       1 RES2   0.0000
    51 H33      3.0088   7.8151   5.6550   H         1 RES2   0.0000
@<TRIPOS>BOND
     1     1    10    1
     2     2    29    2
     3     3    28    1
     4     5    16    1
     5     6     8    1
     6     7     4    1
     7     8     7   ar
     8     9     8   ar
     9    10     9    1
    10    11    10    1
    11    12    11   ar
    12    13    12    1
    13    14    12   ar
    14    15    14    1
    15    16    14   ar
    16    17     5    1
    17    18    17    1
    18    19    17    1
    19    20    17    1
    20    21    20    1
    21    22    20    1
    22    23    20    1
    23    24     7   ar
    24    25    24    1
    25    26    24   ar
    26    27    26    1
    27    28     9   ar
    28    29     1    1
    29    30    29    1
    30    31    30   ar
    31    32    31    1
    32    33    31   ar
    33    34    33    1
    34    35    33   ar
    35    36    35    1
    36    37    35   ar
    37    38    37    1
    38    39    10    1
    39    40     5    1
    40    41    40    1
    41    42    40    1
    42    43    40    1
    43    44    43    1
    44    45    43    1
    45    46    43    1
    46    47    16   ar
    47    48    47    1
    48    49     3    1
    49    50     4    1
    50    51    50    1
    51     6    50    2
    52    11    49   ar
    53    26    28   ar
    54    30    39   ar
    55    37    39   ar
    56    47    49   ar
@<TRIPOS>SUBSTRUCTURE
     1 RES2        1 GROUP             0 ****  ****    0  
