@<TRIPOS>MOLECULE
01
    22    24     1     0     0
SMALL
NO_CHARGES
****
Generated from the CSD

@<TRIPOS>ATOM
     1 S1       5.3609   2.1016   1.0844   S.3       1 RES1   0.0000
     2 N1       3.2850   2.5569   3.1585   N.2       1 RES1   0.0000
     3 C1       1.7878   2.1569  -0.7665   C.ar      1 RES1   0.0000
     4 H1       1.4621   2.0872  -1.6560   H         1 RES1   0.0000
     5 C2       3.1340   1.9860  -0.5045   C.ar      1 RES1   0.0000
     6 H2       3.7285   1.7678  -1.2128   H         1 RES1   0.0000
     7 C3       3.6256   2.1324   0.7913   C.ar      1 RES1   0.0000
     8 C4       2.7495   2.3977   1.8569   C.ar      1 RES1   0.0000
     9 C18      6.3721  -0.0658   4.3286   C.ar      1 RES1   0.0000
    10 H16      7.0864  -0.6358   4.5903   H         1 RES1   0.0000
    11 C19      5.3460   0.2132   5.2130   C.ar      1 RES1   0.0000
    12 H17      5.3495  -0.1720   6.0814   H         1 RES1   0.0000
    13 C20      4.3067   1.0573   4.8314   C.ar      1 RES1   0.0000
    14 H18      3.5929   1.2244   5.4358   H         1 RES1   0.0000
    15 C21      4.2975   1.6617   3.5758   C.ar      1 RES1   0.0000
    16 C22      5.3386   1.3669   2.6845   C.ar      1 RES1   0.0000
    17 C23      0.9265   2.4262   0.2660   C.ar      1 RES1   0.0000
    18 H19      0.0015   2.5480   0.0862   H         1 RES1   0.0000
    19 C24      1.3916   2.5215   1.5753   C.ar      1 RES1   0.0000
    20 H20      0.7766   2.6738   2.2830   H         1 RES1   0.0000
    21 C40      6.3539   0.4894   3.0587   C.ar      1 RES1   0.0000
    22 H34      7.0393   0.2692   2.4385   H         1 RES1   0.0000
@<TRIPOS>BOND
     1     1     7    1
     2     2     8    1
     3     3     4    1
     4     5     3   ar
     5     6     5    1
     6     7     5   ar
     7     8     7   ar
     8     9    10    1
     9    11     9   ar
    10    12    11    1
    11    13    11   ar
    12    14    13    1
    13    15     2    1
    14    16     1    1
    15    17     3   ar
    16    18    17    1
    17    19     8   ar
    18    20    19    1
    19    21     9   ar
    20    22    21    1
    21    13    15   ar
    22    15    16   ar
    23    16    21   ar
    24    17    19   ar
@<TRIPOS>SUBSTRUCTURE
     1 RES1        1 GROUP             0 ****  ****    0  
