@<TRIPOS>MOLECULE
OTUYEK
    82    90     1     0     0
SMALL
NO_CHARGES
****
Generated from the CSD

@<TRIPOS>ATOM
     1 S1       5.3609   2.1016   1.0844   S.3       1 RES1   0.0000
     2 O1       4.0415   9.3019  10.2835   O.3       1 RES1   0.0000
     3 O2       3.6169  11.3949   9.6026   O.2       1 RES1   0.0000
     4 O3       5.1778   5.7446  11.6576   O.3       1 RES1   0.0000
     5 N1       3.2850   2.5569   3.1585   N.pl3     1 RES1   0.0000
     6 N2       3.0442   6.0306   6.6478   N.pl3     1 RES1   0.0000
     7 N3       6.7975   7.6235  15.6905   N.pl3     1 RES1   0.0000
     8 N4       3.8812   7.9674   7.4480   N.2       1 RES1   0.0000
     9 C1       1.7878   2.1569  -0.7665   C.ar      1 RES1   0.0000
    10 H1       1.4621   2.0872  -1.6560   H         1 RES1   0.0000
    11 C2       3.1340   1.9860  -0.5045   C.ar      1 RES1   0.0000
    12 H2       3.7285   1.7678  -1.2128   H         1 RES1   0.0000
    13 C3       3.6256   2.1324   0.7913   C.ar      1 RES1   0.0000
    14 C4       2.7495   2.3977   1.8569   C.ar      1 RES1   0.0000
    15 C5       2.4353   3.1887   4.1770   C.3       1 RES1   0.0000
    16 H3       1.7574   3.7538   3.7284   H         1 RES1   0.0000
    17 H4       1.9569   2.4842   4.6830   H         1 RES1   0.0000
    18 C6       3.2400   4.0505   5.1545   C.3       1 RES1   0.0000
    19 H5       3.6155   3.4806   5.8722   H         1 RES1   0.0000
    20 H6       3.9920   4.4829   4.6779   H         1 RES1   0.0000
    21 C7       2.3371   5.1118   5.7600   C.3       1 RES1   0.0000
    22 H7       1.6142   4.6657   6.2689   H         1 RES1   0.0000
    23 H8       1.9165   5.6306   5.0295   H         1 RES1   0.0000
    24 C8       3.5597   5.7446   7.8975   C.ar      1 RES1   0.0000
    25 C9       4.0747   6.9602   8.3772   C.ar      1 RES1   0.0000
    26 C10      4.6594   7.0290   9.6603   C.ar      1 RES1   0.0000
    27 C11      5.1784   8.3212  10.2447   C.3       1 RES1   0.0000
    28 C12      5.6513   8.1217  11.6576   C.ar      1 RES1   0.0000
    29 C13      6.1174   9.1898  12.4321   C.ar      1 RES1   0.0000
    30 H9       6.1759  10.0506  12.0332   H         1 RES1   0.0000
    31 C14      6.4930   9.0474  13.7397   C.ar      1 RES1   0.0000
    32 H10      6.8059   9.8030  14.2229   H         1 RES1   0.0000
    33 C15      6.4229   7.7866  14.3838   C.ar      1 RES1   0.0000
    34 C16      6.7050   6.3175  16.3515   C.3       1 RES1   0.0000
    35 H11      6.9605   5.6110  15.7071   H         1 RES1   0.0000
    36 H12      7.3488   6.2890  17.1029   H         1 RES1   0.0000
    37 C17      5.3143   6.0227  16.8808   C.3       1 RES1   0.0000
    38 H13      4.6911   5.9353  16.1300   H         1 RES1   0.0000
    39 H14      5.3298   5.1884  17.3937   H         1 RES1   0.0000
    40 H15      5.0223   6.7568  17.4622   H         1 RES1   0.0000
    41 C18      6.3721  -0.0658   4.3286   C.ar      1 RES1   0.0000
    42 H16      7.0864  -0.6358   4.5903   H         1 RES1   0.0000
    43 C19      5.3460   0.2132   5.2130   C.ar      1 RES1   0.0000
    44 H17      5.3495  -0.1720   6.0814   H         1 RES1   0.0000
    45 C20      4.3067   1.0573   4.8314   C.ar      1 RES1   0.0000
    46 H18      3.5929   1.2244   5.4358   H         1 RES1   0.0000
    47 C21      4.2975   1.6617   3.5758   C.ar      1 RES1   0.0000
    48 C22      5.3386   1.3669   2.6845   C.ar      1 RES1   0.0000
    49 C23      0.9265   2.4262   0.2660   C.ar      1 RES1   0.0000
    50 H19      0.0015   2.5480   0.0862   H         1 RES1   0.0000
    51 C24      1.3916   2.5215   1.5753   C.ar      1 RES1   0.0000
    52 H20      0.7766   2.6738   2.2830   H         1 RES1   0.0000
    53 C25      3.6218   4.5556   8.6309   C.ar      1 RES1   0.0000
    54 H21      3.2833   3.7390   8.2850   H         1 RES1   0.0000
    55 C26      4.1954   4.6273   9.8709   C.ar      1 RES1   0.0000
    56 H22      4.2647   3.8402  10.3988   H         1 RES1   0.0000
    57 C27      4.6859   5.8468  10.3791   C.ar      1 RES1   0.0000
    58 C28      4.3781  10.4486   9.6560   C.2       1 RES1   0.0000
    59 C29      5.7299  10.3150   9.0912   C.ar      1 RES1   0.0000
    60 C30      6.4785  11.2338   8.3632   C.ar      1 RES1   0.0000
    61 H23      6.1542  12.1093   8.1849   H         1 RES1   0.0000
    62 C31      7.7143  10.8171   7.9121   C.ar      1 RES1   0.0000
    63 H24      8.2628  11.4185   7.4206   H         1 RES1   0.0000
    64 C32      8.1700   9.5151   8.1712   C.ar      1 RES1   0.0000
    65 H25      9.0070   9.2360   7.8179   H         1 RES1   0.0000
    66 C33      7.4277   8.6317   8.9297   C.ar      1 RES1   0.0000
    67 H26      7.7572   7.7640   9.1315   H         1 RES1   0.0000
    68 C34      6.1799   9.0493   9.3903   C.ar      1 RES1   0.0000
    69 C35      7.2324   8.7221  16.5273   C.3       1 RES1   0.0000
    70 H27      6.7905   9.5534  16.2208   H         1 RES1   0.0000
    71 H28      6.9421   8.5511  17.4579   H         1 RES1   0.0000
    72 C36      8.7339   8.9294  16.5119   C.3       1 RES1   0.0000
    73 H29      9.0313   9.0994  15.5932   H         1 RES1   0.0000
    74 H30      8.9631   9.6979  17.0740   H         1 RES1   0.0000
    75 H31      9.1784   8.1266  16.8572   H         1 RES1   0.0000
    76 C37      5.9621   6.7067  13.6187   C.ar      1 RES1   0.0000
    77 H32      5.8992   5.8439  14.0103   H         1 RES1   0.0000
    78 C38      5.5988   6.8904  12.2994   C.ar      1 RES1   0.0000
    79 C39      3.2703   7.3621   6.4481   C.2       1 RES1   0.0000
    80 H33      3.0088   7.8151   5.6550   H         1 RES1   0.0000
    81 C40      6.3539   0.4894   3.0587   C.ar      1 RES1   0.0000
    82 H34      7.0393   0.2692   2.4385   H         1 RES1   0.0000
@<TRIPOS>BOND
     1     1    13    1
     2     2    27    1
     3     3    58    2
     4     4    57    1
     5     5    14    1
     6     6    21    1
     7     7    33    1
     8     8    25    1
     9     9    10    1
    10    11     9   ar
    11    12    11    1
    12    13    11   ar
    13    14    13   ar
    14    15     5    1
    15    16    15    1
    16    17    15    1
    17    18    15    1
    18    19    18    1
    19    20    18    1
    20    21    18    1
    21    22    21    1
    22    23    21    1
    23    24     6    1
    24    25    24   ar
    25    26    25   ar
    26    27    26    1
    27    28    27    1
    28    29    28   ar
    29    30    29    1
    30    31    29   ar
    31    32    31    1
    32    33    31   ar
    33    34     7    1
    34    35    34    1
    35    36    34    1
    36    37    34    1
    37    38    37    1
    38    39    37    1
    39    40    37    1
    40    41    42    1
    41    43    41   ar
    42    44    43    1
    43    45    43   ar
    44    46    45    1
    45    47     5    1
    46    48     1    1
    47    49     9   ar
    48    50    49    1
    49    51    14   ar
    50    52    51    1
    51    53    24   ar
    52    54    53    1
    53    55    53   ar
    54    56    55    1
    55    57    26   ar
    56    58     2    1
    57    59    58    1
    58    60    59   ar
    59    61    60    1
    60    62    60   ar
    61    63    62    1
    62    64    62   ar
    63    65    64    1
    64    66    64   ar
    65    67    66    1
    66    68    27    1
    67    69     7    1
    68    70    69    1
    69    71    69    1
    70    72    69    1
    71    73    72    1
    72    74    72    1
    73    75    72    1
    74    76    33   ar
    75    77    76    1
    76    78     4    1
    77    79     6    1
    78    80    79    1
    79    81    41   ar
    80    82    81    1
    81     8    79    2
    82    28    78   ar
    83    45    47   ar
    84    47    48   ar
    85    48    81   ar
    86    49    51   ar
    87    55    57   ar
    88    59    68   ar
    89    66    68   ar
    90    76    78   ar
@<TRIPOS>SUBSTRUCTURE
     1 RES1        1 GROUP             0 ****  ****    0  
@<TRIPOS>CRYSIN
   11.5122    9.8266   28.9454   90.0000   99.6290   90.0000   231     1
