@<TRIPOS>MOLECULE
01
    31    34     1     0     0
SMALL
NO_CHARGES
****
Generated from the CSD

@<TRIPOS>ATOM
     1 C1       2.7473   8.1142   1.4747   C.ar      1 RES1   0.0000
     2 C2       1.5476   8.8058   1.4692   C.ar      1 RES1   0.0000
     3 H1       0.7314   8.3683   1.6802   H         1 RES1   0.0000
     4 C3       1.5708  10.1607   1.1459   C.ar      1 RES1   0.0000
     5 H2       0.7583  10.6528   1.1183   H         1 RES1   0.0000
     6 C4       2.7637  10.7927   0.8659   C.ar      1 RES1   0.0000
     7 H3       2.7615  11.7192   0.6566   H         1 RES1   0.0000
     8 C5       3.9747  10.0983   0.8840   C.ar      1 RES1   0.0000
     9 H4       4.7918  10.5419   0.6907   H         1 RES1   0.0000
    10 C6       3.9560   8.7474   1.1899   C.ar      1 RES1   0.0000
    11 C7       5.0504   7.7611   1.3153   C.ar      1 RES1   0.0000
    12 C8       6.4267   7.8563   1.1214   C.ar      1 RES1   0.0000
    13 H5       6.8290   8.6872   0.8964   H         1 RES1   0.0000
    14 C9       7.1969   6.7136   1.2639   C.ar      1 RES1   0.0000
    15 H6       8.1321   6.7660   1.1039   H         1 RES1   0.0000
    16 C10      6.6490   5.5024   1.6309   C.ar      1 RES1   0.0000
    17 H7       7.2026   4.7364   1.7257   H         1 RES1   0.0000
    18 C11      5.2857   5.4089   1.8606   C.ar      1 RES1   0.0000
    19 H8       4.8983   4.5868   2.1372   H         1 RES1   0.0000
    20 C12      4.4992   6.5311   1.6808   C.ar      1 RES1   0.0000
    21 C13      2.9881   6.6585   1.8352   C.3       1 RES1   0.0000
    22 C14      2.5602   6.3387   3.2807   C.2       1 RES1   0.0000
    23 C15      1.4526   4.8966   1.8863   C.2       1 RES1   0.0000
    24 C16      1.0344   4.6787   4.3552   C.3       1 RES1   0.0000
    25 H9       1.4273   3.7930   4.5027   H         1 RES1   0.0000
    26 H10      0.0749   4.5857   4.1807   H         1 RES1   0.0000
    27 H11      1.1698   5.2327   5.1522   H         1 RES1   0.0000
    28 N2       1.6788   5.3112   3.2081   N.am      1 RES1   0.0000
    29 N3       2.1948   5.6855   1.0806   N.am      1 RES1   0.0000
    30 O1       2.9445   6.9011   4.2814   O.2       1 RES1   0.0000
    31 O2       0.6957   3.9996   1.5707   O.2       1 RES1   0.0000
@<TRIPOS>BOND
     1     1     2   ar
     2     2     3    1
     3     4     2   ar
     4     5     4    1
     5     6     4   ar
     6     7     6    1
     7     8     6   ar
     8     9     8    1
     9    10     1   ar
    10    11    10    1
    11    12    11   ar
    12    13    12    1
    13    14    12   ar
    14    15    14    1
    15    16    14   ar
    16    17    16    1
    17    18    16   ar
    18    19    18    1
    19    20    11   ar
    20    21     1    1
    21    22    21    1
    22    23    28   am
    23    24    25    1
    24    26    24    1
    25    27    24    1
    26    28    22   am
    27    29    21    1
    28    30    22    2
    29    31    23    2
    30     8    10   ar
    31    18    20   ar
    32    20    21    1
    33    23    29   am
    34    24    28    1
@<TRIPOS>SUBSTRUCTURE
     1 RES1        1 GROUP             0 ****  ****    0  
