@<TRIPOS>MOLECULE
OXEYEY
    73    78     1     0     0
SMALL
NO_CHARGES
****
Generated from the CSD

@<TRIPOS>ATOM
     1 C1       2.7473   8.1142   1.4747   C.ar      1 RES1   0.0000
     2 C2       1.5476   8.8058   1.4692   C.ar      1 RES1   0.0000
     3 H1       0.7314   8.3683   1.6802   H         1 RES1   0.0000
     4 C3       1.5708  10.1607   1.1459   C.ar      1 RES1   0.0000
     5 H2       0.7583  10.6528   1.1183   H         1 RES1   0.0000
     6 C4       2.7637  10.7927   0.8659   C.ar      1 RES1   0.0000
     7 H3       2.7615  11.7192   0.6566   H         1 RES1   0.0000
     8 C5       3.9747  10.0983   0.8840   C.ar      1 RES1   0.0000
     9 H4       4.7918  10.5419   0.6907   H         1 RES1   0.0000
    10 C6       3.9560   8.7474   1.1899   C.ar      1 RES1   0.0000
    11 C7       5.0504   7.7611   1.3153   C.ar      1 RES1   0.0000
    12 C8       6.4267   7.8563   1.1214   C.ar      1 RES1   0.0000
    13 H5       6.8290   8.6872   0.8964   H         1 RES1   0.0000
    14 C9       7.1969   6.7136   1.2639   C.ar      1 RES1   0.0000
    15 H6       8.1321   6.7660   1.1039   H         1 RES1   0.0000
    16 C10      6.6490   5.5024   1.6309   C.ar      1 RES1   0.0000
    17 H7       7.2026   4.7364   1.7257   H         1 RES1   0.0000
    18 C11      5.2857   5.4089   1.8606   C.ar      1 RES1   0.0000
    19 H8       4.8983   4.5868   2.1372   H         1 RES1   0.0000
    20 C12      4.4992   6.5311   1.6808   C.ar      1 RES1   0.0000
    21 C13      2.9881   6.6585   1.8352   C.3       1 RES1   0.0000
    22 C14      2.5602   6.3387   3.2807   C.2       1 RES1   0.0000
    23 C15      1.4526   4.8966   1.8863   C.2       1 RES1   0.0000
    24 C16      1.0344   4.6787   4.3552   C.3       1 RES1   0.0000
    25 H9       1.4273   3.7930   4.5027   H         1 RES1   0.0000
    26 H10      0.0749   4.5857   4.1807   H         1 RES1   0.0000
    27 H11      1.1698   5.2327   5.1522   H         1 RES1   0.0000
    28 C17      2.0705   5.6534  -0.3766   C.3       1 RES1   0.0000
    29 H12      1.9346   6.5773  -0.7054   H         1 RES1   0.0000
    30 H13      1.2673   5.1275  -0.6167   H         1 RES1   0.0000
    31 C18      3.2763   5.0556  -1.0819   C.3       1 RES1   0.0000
    32 H14      4.0640   5.6278  -0.9044   H         1 RES1   0.0000
    33 H15      3.1107   5.0676  -2.0580   H         1 RES1   0.0000
    34 C19      3.6023   3.6319  -0.6601   C.3       1 RES1   0.0000
    35 H16      2.8583   3.0358  -0.9276   H         1 RES1   0.0000
    36 H17      3.6806   3.5956   0.3261   H         1 RES1   0.0000
    37 C20      4.8989   3.1239  -1.2838   C.3       1 RES1   0.0000
    38 H18      4.7830   3.0723  -2.2656   H         1 RES1   0.0000
    39 H19      5.6199   3.7766  -1.0994   H         1 RES1   0.0000
    40 C21      5.3252   1.7612  -0.7671   C.3       1 RES1   0.0000
    41 H20      5.5337   1.8289   0.1983   H         1 RES1   0.0000
    42 H21      4.5764   1.1228  -0.8732   H         1 RES1   0.0000
    43 C22      7.7307   1.9141  -1.0614   C.3       1 RES1   0.0000
    44 H22      7.9410   1.6627  -0.1271   H         1 RES1   0.0000
    45 H23      7.6045   2.8955  -1.0940   H         1 RES1   0.0000
    46 C23      8.8837   1.5247  -1.9591   C.3       1 RES1   0.0000
    47 H24      8.7372   1.9105  -2.8590   H         1 RES1   0.0000
    48 H25      9.7203   1.9099  -1.5966   H         1 RES1   0.0000
    49 C24      7.7908  -0.7026  -2.1718   C.3       1 RES1   0.0000
    50 H26      7.9777  -1.6462  -1.9370   H         1 RES1   0.0000
    51 H27      7.4682  -0.6825  -3.1075   H         1 RES1   0.0000
    52 C25      6.7040  -0.1771  -1.2658   C.3       1 RES1   0.0000
    53 H28      5.8601  -0.6625  -1.4462   H         1 RES1   0.0000
    54 H29      6.9545  -0.3375  -0.3215   H         1 RES1   0.0000
    55 C26     10.1635  -0.4386  -2.6888   C.ar      1 RES1   0.0000
    56 C27     11.3067   0.3592  -2.9412   C.ar      1 RES1   0.0000
    57 H30     11.2884   1.2813  -2.7135   H         1 RES1   0.0000
    58 C28     12.4454  -0.1734  -3.5103   C.ar      1 RES1   0.0000
    59 H31     13.2024   0.3791  -3.6662   H         1 RES1   0.0000
    60 C29     12.4825  -1.5162  -3.8544   C.ar      1 RES1   0.0000
    61 C30     11.3769  -2.3239  -3.6370   C.ar      1 RES1   0.0000
    62 H32     11.4056  -3.2414  -3.8817   H         1 RES1   0.0000
    63 C31     10.2374  -1.8022  -3.0681   C.ar      1 RES1   0.0000
    64 H33      9.4867  -2.3668  -2.9269   H         1 RES1   0.0000
    65 N1      13.6713  -2.0891  -4.4509   N.pl3     1 RES1   0.0000
    66 N2       1.6788   5.3112   3.2081   N.am      1 RES1   0.0000
    67 N3       2.1948   5.6855   1.0806   N.am      1 RES1   0.0000
    68 N4       6.4990   1.2505  -1.4789   N.3       1 RES1   0.0000
    69 N5       9.0388   0.0678  -2.0806   N.pl3     1 RES1   0.0000
    70 O1       2.9445   6.9011   4.2814   O.2       1 RES1   0.0000
    71 O2       0.6957   3.9996   1.5707   O.2       1 RES1   0.0000
    72 O3      14.5799  -1.3358  -4.8124   O.2       1 RES1   0.0000
    73 O4      13.7283  -3.3165  -4.5896   O.2       1 RES1   0.0000
@<TRIPOS>BOND
     1     1     2   ar
     2     2     3    1
     3     4     2   ar
     4     5     4    1
     5     6     4   ar
     6     7     6    1
     7     8     6   ar
     8     9     8    1
     9    10     1   ar
    10    11    10    1
    11    12    11   ar
    12    13    12    1
    13    14    12   ar
    14    15    14    1
    15    16    14   ar
    16    17    16    1
    17    18    16   ar
    18    19    18    1
    19    20    11   ar
    20    21     1    1
    21    22    21    1
    22    23    66   am
    23    24    25    1
    24    26    24    1
    25    27    24    1
    26    28    29    1
    27    30    28    1
    28    31    28    1
    29    32    31    1
    30    33    31    1
    31    34    31    1
    32    35    34    1
    33    36    34    1
    34    37    34    1
    35    38    37    1
    36    39    37    1
    37    40    37    1
    38    41    40    1
    39    42    40    1
    40    43    44    1
    41    45    43    1
    42    46    43    1
    43    47    46    1
    44    48    46    1
    45    49    50    1
    46    51    49    1
    47    52    49    1
    48    53    52    1
    49    54    52    1
    50    55    56   ar
    51    56    57    1
    52    58    56   ar
    53    59    58    1
    54    60    58   ar
    55    61    60   ar
    56    62    61    1
    57    63    55   ar
    58    64    63    1
    59    65    60    1
    60    66    22   am
    61    67    21    1
    62    68    40    1
    63    69    46    1
    64    70    22    2
    65    71    23    2
    66    72    65    2
    67    73    65    2
    68     8    10   ar
    69    18    20   ar
    70    20    21    1
    71    23    67   am
    72    24    66    1
    73    28    67    1
    74    43    68    1
    75    49    69    1
    76    52    68    1
    77    55    69    1
    78    61    63   ar
@<TRIPOS>SUBSTRUCTURE
     1 RES1        1 GROUP             0 ****  ****    0  
@<TRIPOS>CRYSIN
    8.8799   23.5550   13.2498   90.0000   99.0720   90.0000   231     1
