@<TRIPOS>MOLECULE
02
    13    13     1     0     0
SMALL
NO_CHARGES
****
Generated from the CSD

@<TRIPOS>ATOM
     1 C26     10.1635  -0.4386  -2.6888   C.ar      1 RES2   0.0000
     2 C27     11.3067   0.3592  -2.9412   C.ar      1 RES2   0.0000
     3 H30     11.2884   1.2813  -2.7135   H         1 RES2   0.0000
     4 C28     12.4454  -0.1734  -3.5103   C.ar      1 RES2   0.0000
     5 H31     13.2024   0.3791  -3.6662   H         1 RES2   0.0000
     6 C29     12.4825  -1.5162  -3.8544   C.ar      1 RES2   0.0000
     7 C30     11.3769  -2.3239  -3.6370   C.ar      1 RES2   0.0000
     8 H32     11.4056  -3.2414  -3.8817   H         1 RES2   0.0000
     9 C31     10.2374  -1.8022  -3.0681   C.ar      1 RES2   0.0000
    10 H33      9.4867  -2.3668  -2.9269   H         1 RES2   0.0000
    11 N1      13.6713  -2.0891  -4.4509   N.pl3     1 RES2   0.0000
    12 O3      14.5799  -1.3358  -4.8124   O.2       1 RES2   0.0000
    13 O4      13.7283  -3.3165  -4.5896   O.2       1 RES2   0.0000
@<TRIPOS>BOND
     1     1     2   ar
     2     2     3    1
     3     4     2   ar
     4     5     4    1
     5     6     4   ar
     6     7     6   ar
     7     8     7    1
     8     9     1   ar
     9    10     9    1
    10    11     6    1
    11    12    11    2
    12    13    11    2
    13     7     9   ar
@<TRIPOS>SUBSTRUCTURE
     1 RES2        1 GROUP             0 ****  ****    0  
