@<TRIPOS>MOLECULE
02
    15    15     1     0     0
SMALL
NO_CHARGES
****
Generated from the CSD

@<TRIPOS>ATOM
     1 C21     -2.8090   4.3428  28.1480   C.ar      1 RES2   0.0000
     2 C22     -3.2950   3.4217  29.0749   C.ar      1 RES2   0.0000
     3 C23     -3.6351   2.1674  28.6395   C.ar      1 RES2   0.0000
     4 N1      -4.1234   1.1704  29.6223   N.pl3     1 RES2   0.0000
     5 O9      -4.2641   1.5465  30.7731   O.2       1 RES2   0.0000
     6 O10     -4.4151   0.0474  29.2024   O.2       1 RES2   0.0000
     7 C24     -3.5334   1.7761  27.3269   C.ar      1 RES2   0.0000
     8 C25     -3.0197   2.7007  26.4343   C.ar      1 RES2   0.0000
     9 N2      -2.8709   2.3068  25.0222   N.pl3     1 RES2   0.0000
    10 O11     -3.1499   1.1677  24.7112   O.2       1 RES2   0.0000
    11 O12     -2.4564   3.1421  24.2353   O.2       1 RES2   0.0000
    12 C26     -2.6693   3.9703  26.8137   C.ar      1 RES2   0.0000
    13 H28     -3.3860   3.6558  30.0018   H         1 RES2   0.0000
    14 H29     -3.8112   0.9050  27.0408   H         1 RES2   0.0000
    15 H30     -2.3222   4.5939  26.1668   H         1 RES2   0.0000
@<TRIPOS>BOND
     1     2     1   ar
     2     3     2   ar
     3     4     3    1
     4     5     4    2
     5     6     4    2
     6     7     3   ar
     7     8     7   ar
     8     9     8    1
     9    10     9    2
    10    11     9    2
    11    12     1   ar
    12    13     2    1
    13    14     7    1
    14    15    12    1
    15     8    12   ar
@<TRIPOS>SUBSTRUCTURE
     1 RES2        1 GROUP             0 ****  ****    0  
