@<TRIPOS>MOLECULE
PAMHOA
    75    80     1     0     0
SMALL
NO_CHARGES
****
Generated from the CSD

@<TRIPOS>ATOM
     1 O1       0.8309   7.2249  27.2461   O.3       1 RES1   0.0000
     2 C1       1.6783   6.8122  26.1792   C.3       1 RES1   0.0000
     3 C2       0.8673   6.1082  25.0813   C.3       1 RES1   0.0000
     4 C3       1.6825   5.1013  24.2726   C.3       1 RES1   0.0000
     5 C4       2.2227   3.9604  25.1373   C.3       1 RES1   0.0000
     6 C5       2.5476   4.4393  26.5494   C.3       1 RES1   0.0000
     7 C6       1.3603   3.9327  27.4016   C.3       1 RES1   0.0000
     8 O2       1.0635   2.6552  26.8386   O.3       1 RES1   0.0000
     9 C7       1.6921   3.9140  28.8821   C.3       1 RES1   0.0000
    10 C8       2.0096   5.3961  29.2180   C.3       1 RES1   0.0000
    11 C9       3.0158   6.1180  28.3035   C.3       1 RES1   0.0000
    12 O3       4.3425   5.6642  28.5741   O.3       1 RES1   0.0000
    13 C10      2.8098   5.9295  26.7640   C.3       1 RES1   0.0000
    14 C11      4.0513   6.5040  26.0082   C.3       1 RES1   0.0000
    15 C12      3.6873   7.9539  25.8558   C.3       1 RES1   0.0000
    16 O4       2.2899   7.9468  25.5727   O.3       1 RES1   0.0000
    17 S1       0.2491   3.5557  29.9831   S.3       1 RES1   0.0000
    18 C13      0.0039   1.7734  29.7965   C.3       1 RES1   0.0000
    19 C14      1.2129   0.9416  30.1262   C.3       1 RES1   0.0000
    20 C15      2.3986   1.1811  29.1900   C.3       1 RES1   0.0000
    21 S2       3.1079   2.8455  29.2802   S.3       1 RES1   0.0000
    22 C16      3.4728   3.3261  24.4530   C.2       1 RES1   0.0000
    23 O5       4.5165   3.1698  24.9724   O.2       1 RES1   0.0000
    24 O6       3.2465   2.9983  23.2276   O.3       1 RES1   0.0000
    25 C17      4.3515   2.3773  22.5246   C.3       1 RES1   0.0000
    26 C18     -0.2688   8.0665  26.9661   C.3       1 RES1   0.0000
    27 C19     -1.3550   7.7333  27.9739   C.3       1 RES1   0.0000
    28 O7      -1.8325   6.4119  27.6442   O.3       1 RES1   0.0000
    29 C20     -2.4459   5.6990  28.6239   C.2       1 RES1   0.0000
    30 O8      -2.6693   6.1135  29.7218   O.2       1 RES1   0.0000
    31 C21     -2.8090   4.3428  28.1480   C.ar      1 RES1   0.0000
    32 C22     -3.2950   3.4217  29.0749   C.ar      1 RES1   0.0000
    33 C23     -3.6351   2.1674  28.6395   C.ar      1 RES1   0.0000
    34 N1      -4.1234   1.1704  29.6223   N.pl3     1 RES1   0.0000
    35 O9      -4.2641   1.5465  30.7731   O.2       1 RES1   0.0000
    36 O10     -4.4151   0.0474  29.2024   O.2       1 RES1   0.0000
    37 C24     -3.5334   1.7761  27.3269   C.ar      1 RES1   0.0000
    38 C25     -3.0197   2.7007  26.4343   C.ar      1 RES1   0.0000
    39 N2      -2.8709   2.3068  25.0222   N.pl3     1 RES1   0.0000
    40 O11     -3.1499   1.1677  24.7112   O.2       1 RES1   0.0000
    41 O12     -2.4564   3.1421  24.2353   O.2       1 RES1   0.0000
    42 C26     -2.6693   3.9703  26.8137   C.ar      1 RES1   0.0000
    43 C27      1.1721   2.8276  25.4234   C.3       1 RES1   0.0000
    44 H1       0.5251   6.7755  24.4903   H         1 RES1   0.0000
    45 H2       0.1352   5.6436  25.5074   H         1 RES1   0.0000
    46 H3       1.1307   4.7216  23.5977   H         1 RES1   0.0000
    47 H4       2.4227   5.5623  23.8590   H         1 RES1   0.0000
    48 H5       3.3055   3.9211  26.8199   H         1 RES1   0.0000
    49 H6       0.6160   4.5161  27.2554   H         1 RES1   0.0000
    50 H7       2.3538   5.4167  30.1075   H         1 RES1   0.0000
    51 H8       1.1806   5.8804  29.1993   H         1 RES1   0.0000
    52 H9       2.8728   7.0498  28.4933   H         1 RES1   0.0000
    53 H10      4.5405   5.6722  29.5259   H         1 RES1   0.0000
    54 H11      4.1633   6.0867  25.1497   H         1 RES1   0.0000
    55 H12      4.8498   6.3851  26.5120   H         1 RES1   0.0000
    56 H13      4.1953   8.3613  25.1404   H         1 RES1   0.0000
    57 H14      3.8434   8.4274  26.6707   H         1 RES1   0.0000
    58 H15     -0.2101   1.5956  28.8821   H         1 RES1   0.0000
    59 H16     -0.7321   1.5081  30.3657   H         1 RES1   0.0000
    60 H17      0.9772   0.0107  30.1168   H         1 RES1   0.0000
    61 H18      1.4831   1.1900  31.0064   H         1 RES1   0.0000
    62 H19      3.0883   0.5468  29.3890   H         1 RES1   0.0000
    63 H20      2.0960   1.0372  28.2973   H         1 RES1   0.0000
    64 H21      4.1117   2.2969  21.6040   H         1 RES1   0.0000
    65 H22      4.5226   1.5054  22.8854   H         1 RES1   0.0000
    66 H23      5.1405   2.9178  22.5900   H         1 RES1   0.0000
    67 H24     -0.0122   8.9894  27.0314   H         1 RES1   0.0000
    68 H25     -0.5822   7.8887  26.0828   H         1 RES1   0.0000
    69 H26     -2.0714   8.3703  27.9365   H         1 RES1   0.0000
    70 H27     -0.9855   7.7333  28.8510   H         1 RES1   0.0000
    71 H28     -3.3860   3.6558  30.0018   H         1 RES1   0.0000
    72 H29     -3.8112   0.9050  27.0408   H         1 RES1   0.0000
    73 H30     -2.3222   4.5939  26.1668   H         1 RES1   0.0000
    74 H31      1.4656   2.0093  25.0129   H         1 RES1   0.0000
    75 H32      0.3192   3.0778  25.0751   H         1 RES1   0.0000
@<TRIPOS>BOND
     1     1     2    1
     2     2     3    1
     3     3     4    1
     4     4     5    1
     5     5     6    1
     6     6     7    1
     7     7     8    1
     8     8    43    1
     9     9     7    1
    10    10     9    1
    11    11    10    1
    12    12    11    1
    13    13     2    1
    14    14    13    1
    15    15    14    1
    16    16     2    1
    17    17     9    1
    18    18    17    1
    19    19    18    1
    20    20    19    1
    21    21     9    1
    22    22     5    1
    23    23    22    2
    24    24    22    1
    25    25    24    1
    26    26     1    1
    27    27    26    1
    28    28    27    1
    29    29    28    1
    30    30    29    2
    31    31    29    1
    32    32    31   ar
    33    33    32   ar
    34    34    33    1
    35    35    34    2
    36    36    34    2
    37    37    33   ar
    38    38    37   ar
    39    39    38    1
    40    40    39    2
    41    41    39    2
    42    42    31   ar
    43    43     5    1
    44    44     3    1
    45    45     3    1
    46    46     4    1
    47    47     4    1
    48    48     6    1
    49    49     7    1
    50    50    10    1
    51    51    10    1
    52    52    11    1
    53    53    12    1
    54    54    14    1
    55    55    14    1
    56    56    15    1
    57    57    15    1
    58    58    18    1
    59    59    18    1
    60    60    19    1
    61    61    19    1
    62    62    20    1
    63    63    20    1
    64    64    25    1
    65    65    25    1
    66    66    25    1
    67    67    26    1
    68    68    26    1
    69    69    27    1
    70    70    27    1
    71    71    32    1
    72    72    37    1
    73    73    42    1
    74    74    43    1
    75    75    43    1
    76     6    13    1
    77    11    13    1
    78    15    16    1
    79    20    21    1
    80    38    42   ar
@<TRIPOS>SUBSTRUCTURE
     1 RES1        1 GROUP             0 ****  ****    0  
@<TRIPOS>CRYSIN
   10.1020    8.9340   31.1960   90.0000   94.4300   90.0000   231     1
