@<TRIPOS>MOLECULE
01
    50    54     1     0     0
SMALL
NO_CHARGES
****
Generated from the CSD

@<TRIPOS>ATOM
     1 C1       1.6783   6.8122  26.1792   C.3       1 RES1   0.0000
     2 C2       0.8673   6.1082  25.0813   C.3       1 RES1   0.0000
     3 C3       1.6825   5.1013  24.2726   C.3       1 RES1   0.0000
     4 C4       2.2227   3.9604  25.1373   C.3       1 RES1   0.0000
     5 C5       2.5476   4.4393  26.5494   C.3       1 RES1   0.0000
     6 C6       1.3603   3.9327  27.4016   C.3       1 RES1   0.0000
     7 O2       1.0635   2.6552  26.8386   O.3       1 RES1   0.0000
     8 C7       1.6921   3.9140  28.8821   C.3       1 RES1   0.0000
     9 C8       2.0096   5.3961  29.2180   C.3       1 RES1   0.0000
    10 C9       3.0158   6.1180  28.3035   C.3       1 RES1   0.0000
    11 O3       4.3425   5.6642  28.5741   O.3       1 RES1   0.0000
    12 C10      2.8098   5.9295  26.7640   C.3       1 RES1   0.0000
    13 C11      4.0513   6.5040  26.0082   C.3       1 RES1   0.0000
    14 C12      3.6873   7.9539  25.8558   C.3       1 RES1   0.0000
    15 O4       2.2899   7.9468  25.5727   O.3       1 RES1   0.0000
    16 S1       0.2491   3.5557  29.9831   S.3       1 RES1   0.0000
    17 C13      0.0039   1.7734  29.7965   C.3       1 RES1   0.0000
    18 C14      1.2129   0.9416  30.1262   C.3       1 RES1   0.0000
    19 C15      2.3986   1.1811  29.1900   C.3       1 RES1   0.0000
    20 S2       3.1079   2.8455  29.2802   S.3       1 RES1   0.0000
    21 C16      3.4728   3.3261  24.4530   C.2       1 RES1   0.0000
    22 O5       4.5165   3.1698  24.9724   O.2       1 RES1   0.0000
    23 O6       3.2465   2.9983  23.2276   O.3       1 RES1   0.0000
    24 C17      4.3515   2.3773  22.5246   C.3       1 RES1   0.0000
    25 C27      1.1721   2.8276  25.4234   C.3       1 RES1   0.0000
    26 H1       0.5251   6.7755  24.4903   H         1 RES1   0.0000
    27 H2       0.1352   5.6436  25.5074   H         1 RES1   0.0000
    28 H3       1.1307   4.7216  23.5977   H         1 RES1   0.0000
    29 H4       2.4227   5.5623  23.8590   H         1 RES1   0.0000
    30 H5       3.3055   3.9211  26.8199   H         1 RES1   0.0000
    31 H6       0.6160   4.5161  27.2554   H         1 RES1   0.0000
    32 H7       2.3538   5.4167  30.1075   H         1 RES1   0.0000
    33 H8       1.1806   5.8804  29.1993   H         1 RES1   0.0000
    34 H9       2.8728   7.0498  28.4933   H         1 RES1   0.0000
    35 H10      4.5405   5.6722  29.5259   H         1 RES1   0.0000
    36 H11      4.1633   6.0867  25.1497   H         1 RES1   0.0000
    37 H12      4.8498   6.3851  26.5120   H         1 RES1   0.0000
    38 H13      4.1953   8.3613  25.1404   H         1 RES1   0.0000
    39 H14      3.8434   8.4274  26.6707   H         1 RES1   0.0000
    40 H15     -0.2101   1.5956  28.8821   H         1 RES1   0.0000
    41 H16     -0.7321   1.5081  30.3657   H         1 RES1   0.0000
    42 H17      0.9772   0.0107  30.1168   H         1 RES1   0.0000
    43 H18      1.4831   1.1900  31.0064   H         1 RES1   0.0000
    44 H19      3.0883   0.5468  29.3890   H         1 RES1   0.0000
    45 H20      2.0960   1.0372  28.2973   H         1 RES1   0.0000
    46 H21      4.1117   2.2969  21.6040   H         1 RES1   0.0000
    47 H22      4.5226   1.5054  22.8854   H         1 RES1   0.0000
    48 H23      5.1405   2.9178  22.5900   H         1 RES1   0.0000
    49 H31      1.4656   2.0093  25.0129   H         1 RES1   0.0000
    50 H32      0.3192   3.0778  25.0751   H         1 RES1   0.0000
@<TRIPOS>BOND
     1     1     2    1
     2     2     3    1
     3     3     4    1
     4     4     5    1
     5     5     6    1
     6     6     7    1
     7     7    25    1
     8     8     6    1
     9     9     8    1
    10    10     9    1
    11    11    10    1
    12    12     1    1
    13    13    12    1
    14    14    13    1
    15    15     1    1
    16    16     8    1
    17    17    16    1
    18    18    17    1
    19    19    18    1
    20    20     8    1
    21    21     4    1
    22    22    21    2
    23    23    21    1
    24    24    23    1
    25    25     4    1
    26    26     2    1
    27    27     2    1
    28    28     3    1
    29    29     3    1
    30    30     5    1
    31    31     6    1
    32    32     9    1
    33    33     9    1
    34    34    10    1
    35    35    11    1
    36    36    13    1
    37    37    13    1
    38    38    14    1
    39    39    14    1
    40    40    17    1
    41    41    17    1
    42    42    18    1
    43    43    18    1
    44    44    19    1
    45    45    19    1
    46    46    24    1
    47    47    24    1
    48    48    24    1
    49    49    25    1
    50    50    25    1
    51     5    12    1
    52    10    12    1
    53    14    15    1
    54    19    20    1
@<TRIPOS>SUBSTRUCTURE
     1 RES1        1 GROUP             0 ****  ****    0  
