@<TRIPOS>MOLECULE
01
    48    48     1     0     0
SMALL
NO_CHARGES
****
Generated from the CSD

@<TRIPOS>ATOM
     1 N1       8.3730   5.3794   4.7374   N.3       1 RES1   0.0000
     2 N2      10.2706   4.6495   3.6095   N.am      1 RES1   0.0000
     3 O1      12.0316   4.5558   2.2228   O.3       1 RES1   0.0000
     4 O2      10.1475   3.3953   1.7115   O.2       1 RES1   0.0000
     5 O3      12.0182   6.1798   6.3527   O.3       1 RES1   0.0000
     6 O4      12.6562   4.4901   5.0713   O.2       1 RES1   0.0000
     7 C1      12.9699   2.5814   1.1791   C.3       1 RES1   0.0000
     8 C2      12.2328   4.4755  -0.2015   C.3       1 RES1   0.0000
     9 C3      14.1622   4.7139   1.3235   C.3       1 RES1   0.0000
    10 C4      12.8159   4.0534   1.1069   C.3       1 RES1   0.0000
    11 C5      10.7739   4.1385   2.4244   C.2       1 RES1   0.0000
    12 C6       8.9388   4.2310   4.0607   C.3       1 RES1   0.0000
    13 C7       8.8936   2.9378   4.9089   C.3       1 RES1   0.0000
    14 C8       9.6471   1.7846   4.2171   C.3       1 RES1   0.0000
    15 C9       7.4164   2.5510   5.0503   C.3       1 RES1   0.0000
    16 C10      9.5268   3.1580   6.2865   C.3       1 RES1   0.0000
    17 C11      7.3000   6.0387   4.0186   C.3       1 RES1   0.0000
    18 C12      9.4719   6.2187   5.1646   C.3       1 RES1   0.0000
    19 C13     10.7489   5.8246   4.3675   C.3       1 RES1   0.0000
    20 C14     11.9152   5.3879   5.2909   C.2       1 RES1   0.0000
    21 C15     13.2797   5.9171   7.0746   C.3       1 RES1   0.0000
    22 H1      12.1134   2.1690   1.0407   H         1 RES1   0.0000
    23 H2      13.5838   2.2736   0.5083   H         1 RES1   0.0000
    24 H3      13.3019   2.3491   2.0484   H         1 RES1   0.0000
    25 H4      11.1896   4.0449  -0.3098   H         1 RES1   0.0000
    26 H5      12.1154   5.4280  -0.2346   H         1 RES1   0.0000
    27 H6      12.8236   4.2006  -0.9054   H         1 RES1   0.0000
    28 H7      14.0659   5.6665   1.2573   H         1 RES1   0.0000
    29 H8      14.4961   4.4840   2.1928   H         1 RES1   0.0000
    30 H9      14.7780   4.4086   0.6527   H         1 RES1   0.0000
    31 H10      8.4038   4.0595   3.2816   H         1 RES1   0.0000
    32 H11     10.5872   1.9683   4.1509   H         1 RES1   0.0000
    33 H12      9.5152   0.9537   4.6773   H         1 RES1   0.0000
    34 H13      9.2698   1.7262   3.3358   H         1 RES1   0.0000
    35 H14      7.2952   1.7639   5.5887   H         1 RES1   0.0000
    36 H15      6.9401   3.2846   5.4473   H         1 RES1   0.0000
    37 H16      7.0796   2.3904   4.1659   H         1 RES1   0.0000
    38 H17     10.4592   3.3673   6.1933   H         1 RES1   0.0000
    39 H18      9.0745   3.8916   6.7106   H         1 RES1   0.0000
    40 H19      9.4286   2.3685   6.8249   H         1 RES1   0.0000
    41 H20      6.6293   5.3940   3.7839   H         1 RES1   0.0000
    42 H21      6.9074   6.7248   4.5630   H         1 RES1   0.0000
    43 H22      7.6618   6.4316   3.2215   H         1 RES1   0.0000
    44 H23      9.6317   6.1190   6.1060   H         1 RES1   0.0000
    45 H24      9.2602   7.1384   4.9841   H         1 RES1   0.0000
    46 H25     13.3279   6.4973   7.8386   H         1 RES1   0.0000
    47 H26     13.3076   5.0022   7.3663   H         1 RES1   0.0000
    48 H27     14.0236   6.0910   6.4941   H         1 RES1   0.0000
@<TRIPOS>BOND
     1     1    12    1
     2     2    11   am
     3     3    10    1
     4     4    11    2
     5     5    20    1
     6     6    20    2
     7     7    10    1
     8     8    10    1
     9     9    10    1
    10    11     3    1
    11    12     2    1
    12    13    12    1
    13    14    13    1
    14    15    13    1
    15    16    13    1
    16    17     1    1
    17    18     1    1
    18    19     2    1
    19    20    19    1
    20    21     5    1
    21    22     7    1
    22    23     7    1
    23    24     7    1
    24    25     8    1
    25    26     8    1
    26    27     8    1
    27    28     9    1
    28    29     9    1
    29    30     9    1
    30    31    12    1
    31    32    14    1
    32    33    14    1
    33    34    14    1
    34    35    15    1
    35    36    15    1
    36    37    15    1
    37    38    16    1
    38    39    16    1
    39    40    16    1
    40    41    17    1
    41    42    17    1
    42    43    17    1
    43    44    18    1
    44    45    18    1
    45    46    21    1
    46    47    21    1
    47    48    21    1
    48    18    19    1
@<TRIPOS>SUBSTRUCTURE
     1 RES1        1 GROUP             0 ****  ****    0  
