@<TRIPOS>MOLECULE
PATCES
    93    96     1     0     0
SMALL
NO_CHARGES
****
Generated from the CSD

@<TRIPOS>ATOM
     1 N1       8.3730   5.3794   4.7374   N.3       1 RES1   0.0000
     2 N2      10.2706   4.6495   3.6095   N.am      1 RES1   0.0000
     3 O1      12.0316   4.5558   2.2228   O.3       1 RES1   0.0000
     4 O2      10.1475   3.3953   1.7115   O.2       1 RES1   0.0000
     5 O3      12.0182   6.1798   6.3527   O.3       1 RES1   0.0000
     6 O4      12.6562   4.4901   5.0713   O.2       1 RES1   0.0000
     7 O5      13.9639   7.5922   4.4126   O.2       1 RES1   0.0000
     8 C1      12.9699   2.5814   1.1791   C.3       1 RES1   0.0000
     9 C2      12.2328   4.4755  -0.2015   C.3       1 RES1   0.0000
    10 C3      14.1622   4.7139   1.3235   C.3       1 RES1   0.0000
    11 C4      12.8159   4.0534   1.1069   C.3       1 RES1   0.0000
    12 C5      10.7739   4.1385   2.4244   C.2       1 RES1   0.0000
    13 C6       8.9388   4.2310   4.0607   C.3       1 RES1   0.0000
    14 C7       8.8936   2.9378   4.9089   C.3       1 RES1   0.0000
    15 C8       9.6471   1.7846   4.2171   C.3       1 RES1   0.0000
    16 C9       7.4164   2.5510   5.0503   C.3       1 RES1   0.0000
    17 C10      9.5268   3.1580   6.2865   C.3       1 RES1   0.0000
    18 C11      7.3000   6.0387   4.0186   C.3       1 RES1   0.0000
    19 C12      9.4719   6.2187   5.1646   C.3       1 RES1   0.0000
    20 C13     10.7489   5.8246   4.3675   C.3       1 RES1   0.0000
    21 C14     11.9152   5.3879   5.2909   C.2       1 RES1   0.0000
    22 C15     13.2797   5.9171   7.0746   C.3       1 RES1   0.0000
    23 C16     11.2868   6.9961   3.4651   C.3       1 RES1   0.0000
    24 C17     10.3207   7.3829   2.3702   C.3       1 RES1   0.0000
    25 C18     11.6862   8.2637   4.2953   C.3       1 RES1   0.0000
    26 C19     13.1825   8.5131   4.2562   C.2       1 RES1   0.0000
    27 C20     13.6935   9.9437   3.9103   C.3       1 RES1   0.0000
    28 C21     13.1604  10.1140   2.4665   C.ar      1 RES1   0.0000
    29 C22     13.6242   9.2077   1.4859   C.ar      1 RES1   0.0000
    30 C23     13.1527   9.2600   0.2196   C.ar      1 RES1   0.0000
    31 C24     12.2174  10.2016  -0.1203   C.ar      1 RES1   0.0000
    32 C25     11.6929  11.0677   0.8212   C.ar      1 RES1   0.0000
    33 C26     12.1635  11.0191   2.1296   C.ar      1 RES1   0.0000
    34 C27     15.2294  10.0276   3.9855   C.ar      1 RES1   0.0000
    35 C28     16.0011  10.6079   2.9808   C.ar      1 RES1   0.0000
    36 C29     17.3676  10.8025   3.1673   C.ar      1 RES1   0.0000
    37 C30     17.9844  10.4035   4.3254   C.ar      1 RES1   0.0000
    38 C31     17.2300   9.8050   5.3089   C.ar      1 RES1   0.0000
    39 C32     15.8751   9.6359   5.1285   C.ar      1 RES1   0.0000
    40 C33     13.2056  11.0215   4.8939   C.ar      1 RES1   0.0000
    41 C34     12.6071  10.7210   6.1060   C.ar      1 RES1   0.0000
    42 C35     12.2703  11.7149   7.0174   C.ar      1 RES1   0.0000
    43 C36     12.5455  13.0214   6.6866   C.ar      1 RES1   0.0000
    44 C37     13.1643  13.3535   5.4894   C.ar      1 RES1   0.0000
    45 C38     13.4934  12.3706   4.6141   C.ar      1 RES1   0.0000
    46 H1      12.1134   2.1690   1.0407   H         1 RES1   0.0000
    47 H2      13.5838   2.2736   0.5083   H         1 RES1   0.0000
    48 H3      13.3019   2.3491   2.0484   H         1 RES1   0.0000
    49 H4      11.1896   4.0449  -0.3098   H         1 RES1   0.0000
    50 H5      12.1154   5.4280  -0.2346   H         1 RES1   0.0000
    51 H6      12.8236   4.2006  -0.9054   H         1 RES1   0.0000
    52 H7      14.0659   5.6665   1.2573   H         1 RES1   0.0000
    53 H8      14.4961   4.4840   2.1928   H         1 RES1   0.0000
    54 H9      14.7780   4.4086   0.6527   H         1 RES1   0.0000
    55 H10      8.4038   4.0595   3.2816   H         1 RES1   0.0000
    56 H11     10.5872   1.9683   4.1509   H         1 RES1   0.0000
    57 H12      9.5152   0.9537   4.6773   H         1 RES1   0.0000
    58 H13      9.2698   1.7262   3.3358   H         1 RES1   0.0000
    59 H14      7.2952   1.7639   5.5887   H         1 RES1   0.0000
    60 H15      6.9401   3.2846   5.4473   H         1 RES1   0.0000
    61 H16      7.0796   2.3904   4.1659   H         1 RES1   0.0000
    62 H17     10.4592   3.3673   6.1933   H         1 RES1   0.0000
    63 H18      9.0745   3.8916   6.7106   H         1 RES1   0.0000
    64 H19      9.4286   2.3685   6.8249   H         1 RES1   0.0000
    65 H20      6.6293   5.3940   3.7839   H         1 RES1   0.0000
    66 H21      6.9074   6.7248   4.5630   H         1 RES1   0.0000
    67 H22      7.6618   6.4316   3.2215   H         1 RES1   0.0000
    68 H23      9.6317   6.1190   6.1060   H         1 RES1   0.0000
    69 H24      9.2602   7.1384   4.9841   H         1 RES1   0.0000
    70 H25     13.3279   6.4973   7.8386   H         1 RES1   0.0000
    71 H26     13.3076   5.0022   7.3663   H         1 RES1   0.0000
    72 H27     14.0236   6.0910   6.4941   H         1 RES1   0.0000
    73 H28     12.0894   6.6871   3.0380   H         1 RES1   0.0000
    74 H29     10.1051   6.6056   1.8499   H         1 RES1   0.0000
    75 H30      9.5220   7.7260   2.7763   H         1 RES1   0.0000
    76 H31     10.7056   8.0544   1.8017   H         1 RES1   0.0000
    77 H32     11.4254   8.1226   5.2067   H         1 RES1   0.0000
    78 H33     11.2127   9.0289   3.9614   H         1 RES1   0.0000
    79 H34     14.2478   8.5228   1.7386   H         1 RES1   0.0000
    80 H35     13.5136   8.6749  -0.4482   H         1 RES1   0.0000
    81 H36     11.9046  10.2247  -1.0287   H         1 RES1   0.0000
    82 H37     11.0087  11.6857   0.5565   H         1 RES1   0.0000
    83 H38     11.8026  11.6164   2.7883   H         1 RES1   0.0000
    84 H39     15.5652  10.8877   2.1717   H         1 RES1   0.0000
    85 H40     17.8930  11.2198   2.4815   H         1 RES1   0.0000
    86 H41     18.9333  10.5033   4.4306   H         1 RES1   0.0000
    87 H42     17.6409   9.5568   6.1391   H         1 RES1   0.0000
    88 H43     15.3419   9.2138   5.8052   H         1 RES1   0.0000
    89 H44     12.4127   9.8062   6.3196   H         1 RES1   0.0000
    90 H45     11.8748  11.5105   7.8687   H         1 RES1   0.0000
    91 H46     12.3011  13.7185   7.3032   H         1 RES1   0.0000
    92 H47     13.3288  14.2756   5.2789   H         1 RES1   0.0000
    93 H48     13.9360  12.5944   3.7930   H         1 RES1   0.0000
@<TRIPOS>BOND
     1     1    13    1
     2     2    12   am
     3     3    11    1
     4     4    12    2
     5     5    21    1
     6     6    21    2
     7     7    26    2
     8     8    11    1
     9     9    11    1
    10    10    11    1
    11    12     3    1
    12    13     2    1
    13    14    13    1
    14    15    14    1
    15    16    14    1
    16    17    14    1
    17    18     1    1
    18    19     1    1
    19    20     2    1
    20    21    20    1
    21    22     5    1
    22    23    20    1
    23    24    23    1
    24    25    23    1
    25    26    25    1
    26    27    26    1
    27    28    27    1
    28    29    28   ar
    29    30    29   ar
    30    31    30   ar
    31    32    31   ar
    32    33    28   ar
    33    34    27    1
    34    35    34   ar
    35    36    35   ar
    36    37    36   ar
    37    38    37   ar
    38    39    34   ar
    39    40    27    1
    40    41    40   ar
    41    42    41   ar
    42    43    42   ar
    43    44    43   ar
    44    45    40   ar
    45    46     8    1
    46    47     8    1
    47    48     8    1
    48    49     9    1
    49    50     9    1
    50    51     9    1
    51    52    10    1
    52    53    10    1
    53    54    10    1
    54    55    13    1
    55    56    15    1
    56    57    15    1
    57    58    15    1
    58    59    16    1
    59    60    16    1
    60    61    16    1
    61    62    17    1
    62    63    17    1
    63    64    17    1
    64    65    18    1
    65    66    18    1
    66    67    18    1
    67    68    19    1
    68    69    19    1
    69    70    22    1
    70    71    22    1
    71    72    22    1
    72    73    23    1
    73    74    24    1
    74    75    24    1
    75    76    24    1
    76    77    25    1
    77    78    25    1
    78    79    29    1
    79    80    30    1
    80    81    31    1
    81    82    32    1
    82    83    33    1
    83    84    35    1
    84    85    36    1
    85    86    37    1
    86    87    38    1
    87    88    39    1
    88    89    41    1
    89    90    42    1
    90    91    43    1
    91    92    44    1
    92    93    45    1
    93    19    20    1
    94    32    33   ar
    95    38    39   ar
    96    44    45   ar
@<TRIPOS>SUBSTRUCTURE
     1 RES1        1 GROUP             0 ****  ****    0  
@<TRIPOS>CRYSIN
    9.6230   12.1650   30.0790   90.0000   90.0000   90.0000    19     1
