@<TRIPOS>MOLECULE
02
    34    36     1     0     0
SMALL
NO_CHARGES
****
Generated from the CSD

@<TRIPOS>ATOM
     1 C20     13.6935   9.9437   3.9103   C.3       1 RES2   0.0000
     2 C21     13.1604  10.1140   2.4665   C.ar      1 RES2   0.0000
     3 C22     13.6242   9.2077   1.4859   C.ar      1 RES2   0.0000
     4 C23     13.1527   9.2600   0.2196   C.ar      1 RES2   0.0000
     5 C24     12.2174  10.2016  -0.1203   C.ar      1 RES2   0.0000
     6 C25     11.6929  11.0677   0.8212   C.ar      1 RES2   0.0000
     7 C26     12.1635  11.0191   2.1296   C.ar      1 RES2   0.0000
     8 C27     15.2294  10.0276   3.9855   C.ar      1 RES2   0.0000
     9 C28     16.0011  10.6079   2.9808   C.ar      1 RES2   0.0000
    10 C29     17.3676  10.8025   3.1673   C.ar      1 RES2   0.0000
    11 C30     17.9844  10.4035   4.3254   C.ar      1 RES2   0.0000
    12 C31     17.2300   9.8050   5.3089   C.ar      1 RES2   0.0000
    13 C32     15.8751   9.6359   5.1285   C.ar      1 RES2   0.0000
    14 C33     13.2056  11.0215   4.8939   C.ar      1 RES2   0.0000
    15 C34     12.6071  10.7210   6.1060   C.ar      1 RES2   0.0000
    16 C35     12.2703  11.7149   7.0174   C.ar      1 RES2   0.0000
    17 C36     12.5455  13.0214   6.6866   C.ar      1 RES2   0.0000
    18 C37     13.1643  13.3535   5.4894   C.ar      1 RES2   0.0000
    19 C38     13.4934  12.3706   4.6141   C.ar      1 RES2   0.0000
    20 H34     14.2478   8.5228   1.7386   H         1 RES2   0.0000
    21 H35     13.5136   8.6749  -0.4482   H         1 RES2   0.0000
    22 H36     11.9046  10.2247  -1.0287   H         1 RES2   0.0000
    23 H37     11.0087  11.6857   0.5565   H         1 RES2   0.0000
    24 H38     11.8026  11.6164   2.7883   H         1 RES2   0.0000
    25 H39     15.5652  10.8877   2.1717   H         1 RES2   0.0000
    26 H40     17.8930  11.2198   2.4815   H         1 RES2   0.0000
    27 H41     18.9333  10.5033   4.4306   H         1 RES2   0.0000
    28 H42     17.6409   9.5568   6.1391   H         1 RES2   0.0000
    29 H43     15.3419   9.2138   5.8052   H         1 RES2   0.0000
    30 H44     12.4127   9.8062   6.3196   H         1 RES2   0.0000
    31 H45     11.8748  11.5105   7.8687   H         1 RES2   0.0000
    32 H46     12.3011  13.7185   7.3032   H         1 RES2   0.0000
    33 H47     13.3288  14.2756   5.2789   H         1 RES2   0.0000
    34 H48     13.9360  12.5944   3.7930   H         1 RES2   0.0000
@<TRIPOS>BOND
     1     2     1    1
     2     3     2   ar
     3     4     3   ar
     4     5     4   ar
     5     6     5   ar
     6     7     2   ar
     7     8     1    1
     8     9     8   ar
     9    10     9   ar
    10    11    10   ar
    11    12    11   ar
    12    13     8   ar
    13    14     1    1
    14    15    14   ar
    15    16    15   ar
    16    17    16   ar
    17    18    17   ar
    18    19    14   ar
    19    20     3    1
    20    21     4    1
    21    22     5    1
    22    23     6    1
    23    24     7    1
    24    25     9    1
    25    26    10    1
    26    27    11    1
    27    28    12    1
    28    29    13    1
    29    30    15    1
    30    31    16    1
    31    32    17    1
    32    33    18    1
    33    34    19    1
    34     6     7   ar
    35    12    13   ar
    36    18    19   ar
@<TRIPOS>SUBSTRUCTURE
     1 RES2        1 GROUP             0 ****  ****    0  
