@<TRIPOS>MOLECULE
PAYLOT
    94   100     1     0     0
SMALL
NO_CHARGES
****
Generated from the CSD

@<TRIPOS>ATOM
     1 O1      10.1164   8.8579   1.1297   O.3       1 RES1   0.0000
     2 O2      13.3828   9.8198   6.5380   O.2       1 RES1   0.0000
     3 O3      15.9257   6.0269   4.2932   O.2       1 RES1   0.0000
     4 O4      14.7145   6.8937   7.5390   O.3       1 RES1   0.0000
     5 N1      10.3649  13.3338  -0.3730   N.pl3     1 RES1   0.0000
     6 N2       9.9987   4.1960   1.9621   N.pl3     1 RES1   0.0000
     7 N3      12.4151   9.6081   4.4591   N.am      1 RES1   0.0000
     8 N4      14.6802   7.7822   4.9702   N.am      1 RES1   0.0000
     9 H1      14.4112   8.2375   5.6481   H         1 RES1   0.0000
    10 C1      10.3305   7.8629   2.0577   C.ar      1 RES1   0.0000
    11 C2      10.7931   8.1249   3.3307   C.ar      1 RES1   0.0000
    12 C3      11.0596   9.5208   3.8432   C.3       1 RES1   0.0000
    13 C4      10.8814  10.5169   2.7281   C.ar      1 RES1   0.0000
    14 C5      10.4384  10.1591   1.4656   C.ar      1 RES1   0.0000
    15 C6      10.2635  11.0779   0.4381   C.ar      1 RES1   0.0000
    16 H2       9.9549  10.7887  -0.3895   H         1 RES1   0.0000
    17 C7      10.5398  12.4200   0.6332   C.ar      1 RES1   0.0000
    18 C8      10.9844  12.8063   1.9169   C.ar      1 RES1   0.0000
    19 H3      11.1722  13.7001   2.0921   H         1 RES1   0.0000
    20 C9      11.1413  11.8690   2.9099   C.ar      1 RES1   0.0000
    21 H4      11.4361  12.1546   3.7449   H         1 RES1   0.0000
    22 C10     10.9729   7.0012   4.1445   C.ar      1 RES1   0.0000
    23 H5      11.2903   7.1248   5.0101   H         1 RES1   0.0000
    24 C11     10.7065   5.7330   3.7237   C.ar      1 RES1   0.0000
    25 H6      10.8402   5.0210   4.3056   H         1 RES1   0.0000
    26 C12     10.2308   5.4844   2.4254   C.ar      1 RES1   0.0000
    27 C13     10.0510   6.5829   1.5983   C.ar      1 RES1   0.0000
    28 H7       9.7412   6.4616   0.7303   H         1 RES1   0.0000
    29 C14     10.9010  14.6809  -0.2960   C.3       1 RES1   0.0000
    30 H8      11.2789  14.9179  -1.1574   H         1 RES1   0.0000
    31 H9      11.6203  14.6947   0.3553   H         1 RES1   0.0000
    32 C15      9.8843  15.7039   0.0850   C.3       1 RES1   0.0000
    33 H10      9.1519  15.6727  -0.5347   H         1 RES1   0.0000
    34 H11     10.2852  16.5762   0.0628   H         1 RES1   0.0000
    35 H12      9.5631  15.5215   0.9705   H         1 RES1   0.0000
    36 C16      9.7666  12.9525  -1.6448   C.3       1 RES1   0.0000
    37 H13      9.3564  13.7346  -2.0458   H         1 RES1   0.0000
    38 H14      9.0664  12.3025  -1.4803   H         1 RES1   0.0000
    39 C17     10.7474  12.3730  -2.6099   C.3       1 RES1   0.0000
    40 H15     11.4449  13.0104  -2.7799   H         1 RES1   0.0000
    41 H16     10.2998  12.1619  -3.4330   H         1 RES1   0.0000
    42 H17     11.1279  11.5735  -2.2390   H         1 RES1   0.0000
    43 C18      9.4152   3.9575   0.6518   C.3       1 RES1   0.0000
    44 H18      8.7735   3.2337   0.7267   H         1 RES1   0.0000
    45 H19      8.9310   4.7516   0.3792   H         1 RES1   0.0000
    46 C19     10.3583   3.6249  -0.3691   C.3       1 RES1   0.0000
    47 H20      9.9211   3.6339  -1.2233   H         1 RES1   0.0000
    48 H21     10.7168   2.7506  -0.2014   H         1 RES1   0.0000
    49 H22     11.0709   4.2688  -0.3674   H         1 RES1   0.0000
    50 C20     10.0576   3.0521   2.8435   C.3       1 RES1   0.0000
    51 H23     10.7926   3.1744   3.4658   H         1 RES1   0.0000
    52 H24     10.2479   2.2600   2.3167   H         1 RES1   0.0000
    53 C21      8.8365   2.8287   3.6002   C.3       1 RES1   0.0000
    54 H25      8.6879   3.5694   4.1934   H         1 RES1   0.0000
    55 H26      8.9192   2.0211   4.1116   H         1 RES1   0.0000
    56 H27      8.0953   2.7506   2.9951   H         1 RES1   0.0000
    57 C22     12.3934   9.7828   5.8106   C.2       1 RES1   0.0000
    58 C23     10.9811   9.9172   6.1942   C.ar      1 RES1   0.0000
    59 C24     10.1998   9.8248   5.0645   C.ar      1 RES1   0.0000
    60 C25      8.8316   9.9743   5.1335   C.ar      1 RES1   0.0000
    61 H28      8.3032   9.9265   4.3708   H         1 RES1   0.0000
    62 C26      8.2775  10.1977   6.3721   C.ar      1 RES1   0.0000
    63 H29      7.3563  10.3079   6.4435   H         1 RES1   0.0000
    64 C27      9.0507  10.2632   7.5085   C.ar      1 RES1   0.0000
    65 H30      8.6433  10.4101   8.3314   H         1 RES1   0.0000
    66 C28     10.4139  10.1171   7.4461   C.ar      1 RES1   0.0000
    67 H31     10.9382  10.1505   8.2139   H         1 RES1   0.0000
    68 C29     13.6438   9.5762   3.6958   C.3       1 RES1   0.0000
    69 H32     14.2656  10.2136   4.0818   H         1 RES1   0.0000
    70 H33     13.4543   9.8638   2.7896   H         1 RES1   0.0000
    71 C30     14.3124   8.2240   3.6427   C.3       1 RES1   0.0000
    72 H34     13.7084   7.5802   3.2421   H         1 RES1   0.0000
    73 H35     15.1066   8.2778   3.0874   H         1 RES1   0.0000
    74 C31     15.4174   6.7005   5.1813   C.2       1 RES1   0.0000
    75 C32     15.6593   6.3477   6.6296   C.3       1 RES1   0.0000
    76 H36     15.6506   5.3823   6.7188   H         1 RES1   0.0000
    77 H37     16.5433   6.6577   6.8799   H         1 RES1   0.0000
    78 C33     13.4967   6.2822   7.6386   C.ar      1 RES1   0.0000
    79 C34     13.0783   5.2576   6.8235   C.ar      1 RES1   0.0000
    80 H38     13.6254   4.9527   6.1366   H         1 RES1   0.0000
    81 C35     11.8147   4.6747   7.0359   C.ar      1 RES1   0.0000
    82 H39     11.5368   3.9817   6.4830   H         1 RES1   0.0000
    83 C36     10.9958   5.0997   8.0288   C.ar      1 RES1   0.0000
    84 H40     10.1725   4.6860   8.1594   H         1 RES1   0.0000
    85 C37     11.3848   6.1646   8.8625   C.ar      1 RES1   0.0000
    86 C38     12.6500   6.7761   8.6647   C.ar      1 RES1   0.0000
    87 C39     13.0276   7.8444   9.5011   C.ar      1 RES1   0.0000
    88 H41     13.8476   8.2623   9.3672   H         1 RES1   0.0000
    89 C40     12.2103   8.2727  10.5020   C.ar      1 RES1   0.0000
    90 H42     12.4776   8.9807  11.0429   H         1 RES1   0.0000
    91 C41     10.9860   7.6663  10.7250   C.ar      1 RES1   0.0000
    92 H43     10.4436   7.9647  11.4185   H         1 RES1   0.0000
    93 C42     10.5692   6.6367   9.9352   C.ar      1 RES1   0.0000
    94 H44      9.7457   6.2368  10.0980   H         1 RES1   0.0000
@<TRIPOS>BOND
     1     1    10    1
     2     2    57    2
     3     3    74    2
     4     4    75    1
     5     5    17    1
     6     6    26    1
     7     7    12    1
     8     8     9    1
     9    10    11   ar
    10    11    12    1
    11    12    13    1
    12    13    14   ar
    13    14     1    1
    14    15    14   ar
    15    16    15    1
    16    17    15   ar
    17    18    17   ar
    18    19    18    1
    19    20    13   ar
    20    21    20    1
    21    22    11   ar
    22    23    22    1
    23    24    22   ar
    24    25    24    1
    25    26    24   ar
    26    27    10   ar
    27    28    27    1
    28    29     5    1
    29    30    29    1
    30    31    29    1
    31    32    29    1
    32    33    32    1
    33    34    32    1
    34    35    32    1
    35    36     5    1
    36    37    36    1
    37    38    36    1
    38    39    36    1
    39    40    39    1
    40    41    39    1
    41    42    39    1
    42    43     6    1
    43    44    43    1
    44    45    43    1
    45    46    43    1
    46    47    46    1
    47    48    46    1
    48    49    46    1
    49    50     6    1
    50    51    50    1
    51    52    50    1
    52    53    50    1
    53    54    53    1
    54    55    53    1
    55    56    53    1
    56    57     7   am
    57    58    57    1
    58    59    12    1
    59    60    59   ar
    60    61    60    1
    61    62    60   ar
    62    63    62    1
    63    64    62   ar
    64    65    64    1
    65    66    58   ar
    66    67    66    1
    67    68     7    1
    68    69    68    1
    69    70    68    1
    70    71     8    1
    71    72    71    1
    72    73    71    1
    73    74     8   am
    74    75    74    1
    75    76    75    1
    76    77    75    1
    77    78     4    1
    78    79    78   ar
    79    80    79    1
    80    81    79   ar
    81    82    81    1
    82    83    81   ar
    83    84    83    1
    84    85    83   ar
    85    86    78   ar
    86    87    86   ar
    87    88    87    1
    88    89    87   ar
    89    90    89    1
    90    91    89   ar
    91    92    91    1
    92    93    85   ar
    93    94    93    1
    94    18    20   ar
    95    26    27   ar
    96    58    59   ar
    97    64    66   ar
    98    68    71    1
    99    85    86   ar
   100    91    93   ar
@<TRIPOS>SUBSTRUCTURE
     1 RES1        1 GROUP             0 ****  ****    0  
@<TRIPOS>CRYSIN
   16.3458   16.7974   13.2752   90.0000   90.0000   90.0000    18     1
