@<TRIPOS>MOLECULE
02
    17    18     1     0     0
SMALL
NO_CHARGES
****
Generated from the CSD

@<TRIPOS>ATOM
     1 C33     13.4967   6.2822   7.6386   C.ar      1 RES2   0.0000
     2 C34     13.0783   5.2576   6.8235   C.ar      1 RES2   0.0000
     3 H38     13.6254   4.9527   6.1366   H         1 RES2   0.0000
     4 C35     11.8147   4.6747   7.0359   C.ar      1 RES2   0.0000
     5 H39     11.5368   3.9817   6.4830   H         1 RES2   0.0000
     6 C36     10.9958   5.0997   8.0288   C.ar      1 RES2   0.0000
     7 H40     10.1725   4.6860   8.1594   H         1 RES2   0.0000
     8 C37     11.3848   6.1646   8.8625   C.ar      1 RES2   0.0000
     9 C38     12.6500   6.7761   8.6647   C.ar      1 RES2   0.0000
    10 C39     13.0276   7.8444   9.5011   C.ar      1 RES2   0.0000
    11 H41     13.8476   8.2623   9.3672   H         1 RES2   0.0000
    12 C40     12.2103   8.2727  10.5020   C.ar      1 RES2   0.0000
    13 H42     12.4776   8.9807  11.0429   H         1 RES2   0.0000
    14 C41     10.9860   7.6663  10.7250   C.ar      1 RES2   0.0000
    15 H43     10.4436   7.9647  11.4185   H         1 RES2   0.0000
    16 C42     10.5692   6.6367   9.9352   C.ar      1 RES2   0.0000
    17 H44      9.7457   6.2368  10.0980   H         1 RES2   0.0000
@<TRIPOS>BOND
     1     2     1   ar
     2     3     2    1
     3     4     2   ar
     4     5     4    1
     5     6     4   ar
     6     7     6    1
     7     8     6   ar
     8     9     1   ar
     9    10     9   ar
    10    11    10    1
    11    12    10   ar
    12    13    12    1
    13    14    12   ar
    14    15    14    1
    15    16     8   ar
    16    17    16    1
    17     8     9   ar
    18    14    16   ar
@<TRIPOS>SUBSTRUCTURE
     1 RES2        1 GROUP             0 ****  ****    0  
