@<TRIPOS>MOLECULE
01
    63    67     1     0     0
SMALL
NO_CHARGES
****
Generated from the CSD

@<TRIPOS>ATOM
     1 O1      10.1164   8.8579   1.1297   O.3       1 RES1   0.0000
     2 O2      13.3828   9.8198   6.5380   O.2       1 RES1   0.0000
     3 N1      10.3649  13.3338  -0.3730   N.pl3     1 RES1   0.0000
     4 N2       9.9987   4.1960   1.9621   N.pl3     1 RES1   0.0000
     5 N3      12.4151   9.6081   4.4591   N.am      1 RES1   0.0000
     6 C1      10.3305   7.8629   2.0577   C.ar      1 RES1   0.0000
     7 C2      10.7931   8.1249   3.3307   C.ar      1 RES1   0.0000
     8 C3      11.0596   9.5208   3.8432   C.3       1 RES1   0.0000
     9 C4      10.8814  10.5169   2.7281   C.ar      1 RES1   0.0000
    10 C5      10.4384  10.1591   1.4656   C.ar      1 RES1   0.0000
    11 C6      10.2635  11.0779   0.4381   C.ar      1 RES1   0.0000
    12 H2       9.9549  10.7887  -0.3895   H         1 RES1   0.0000
    13 C7      10.5398  12.4200   0.6332   C.ar      1 RES1   0.0000
    14 C8      10.9844  12.8063   1.9169   C.ar      1 RES1   0.0000
    15 H3      11.1722  13.7001   2.0921   H         1 RES1   0.0000
    16 C9      11.1413  11.8690   2.9099   C.ar      1 RES1   0.0000
    17 H4      11.4361  12.1546   3.7449   H         1 RES1   0.0000
    18 C10     10.9729   7.0012   4.1445   C.ar      1 RES1   0.0000
    19 H5      11.2903   7.1248   5.0101   H         1 RES1   0.0000
    20 C11     10.7065   5.7330   3.7237   C.ar      1 RES1   0.0000
    21 H6      10.8402   5.0210   4.3056   H         1 RES1   0.0000
    22 C12     10.2308   5.4844   2.4254   C.ar      1 RES1   0.0000
    23 C13     10.0510   6.5829   1.5983   C.ar      1 RES1   0.0000
    24 H7       9.7412   6.4616   0.7303   H         1 RES1   0.0000
    25 C14     10.9010  14.6809  -0.2960   C.3       1 RES1   0.0000
    26 H8      11.2789  14.9179  -1.1574   H         1 RES1   0.0000
    27 H9      11.6203  14.6947   0.3553   H         1 RES1   0.0000
    28 C15      9.8843  15.7039   0.0850   C.3       1 RES1   0.0000
    29 H10      9.1519  15.6727  -0.5347   H         1 RES1   0.0000
    30 H11     10.2852  16.5762   0.0628   H         1 RES1   0.0000
    31 H12      9.5631  15.5215   0.9705   H         1 RES1   0.0000
    32 C16      9.7666  12.9525  -1.6448   C.3       1 RES1   0.0000
    33 H13      9.3564  13.7346  -2.0458   H         1 RES1   0.0000
    34 H14      9.0664  12.3025  -1.4803   H         1 RES1   0.0000
    35 C17     10.7474  12.3730  -2.6099   C.3       1 RES1   0.0000
    36 H15     11.4449  13.0104  -2.7799   H         1 RES1   0.0000
    37 H16     10.2998  12.1619  -3.4330   H         1 RES1   0.0000
    38 H17     11.1279  11.5735  -2.2390   H         1 RES1   0.0000
    39 C18      9.4152   3.9575   0.6518   C.3       1 RES1   0.0000
    40 H18      8.7735   3.2337   0.7267   H         1 RES1   0.0000
    41 H19      8.9310   4.7516   0.3792   H         1 RES1   0.0000
    42 C19     10.3583   3.6249  -0.3691   C.3       1 RES1   0.0000
    43 H20      9.9211   3.6339  -1.2233   H         1 RES1   0.0000
    44 H21     10.7168   2.7506  -0.2014   H         1 RES1   0.0000
    45 H22     11.0709   4.2688  -0.3674   H         1 RES1   0.0000
    46 C20     10.0576   3.0521   2.8435   C.3       1 RES1   0.0000
    47 H23     10.7926   3.1744   3.4658   H         1 RES1   0.0000
    48 H24     10.2479   2.2600   2.3167   H         1 RES1   0.0000
    49 C21      8.8365   2.8287   3.6002   C.3       1 RES1   0.0000
    50 H25      8.6879   3.5694   4.1934   H         1 RES1   0.0000
    51 H26      8.9192   2.0211   4.1116   H         1 RES1   0.0000
    52 H27      8.0953   2.7506   2.9951   H         1 RES1   0.0000
    53 C22     12.3934   9.7828   5.8106   C.2       1 RES1   0.0000
    54 C23     10.9811   9.9172   6.1942   C.ar      1 RES1   0.0000
    55 C24     10.1998   9.8248   5.0645   C.ar      1 RES1   0.0000
    56 C25      8.8316   9.9743   5.1335   C.ar      1 RES1   0.0000
    57 H28      8.3032   9.9265   4.3708   H         1 RES1   0.0000
    58 C26      8.2775  10.1977   6.3721   C.ar      1 RES1   0.0000
    59 H29      7.3563  10.3079   6.4435   H         1 RES1   0.0000
    60 C27      9.0507  10.2632   7.5085   C.ar      1 RES1   0.0000
    61 H30      8.6433  10.4101   8.3314   H         1 RES1   0.0000
    62 C28     10.4139  10.1171   7.4461   C.ar      1 RES1   0.0000
    63 H31     10.9382  10.1505   8.2139   H         1 RES1   0.0000
@<TRIPOS>BOND
     1     1     6    1
     2     2    53    2
     3     3    13    1
     4     4    22    1
     5     5     8    1
     6     6     7   ar
     7     7     8    1
     8     8     9    1
     9     9    10   ar
    10    10     1    1
    11    11    10   ar
    12    12    11    1
    13    13    11   ar
    14    14    13   ar
    15    15    14    1
    16    16     9   ar
    17    17    16    1
    18    18     7   ar
    19    19    18    1
    20    20    18   ar
    21    21    20    1
    22    22    20   ar
    23    23     6   ar
    24    24    23    1
    25    25     3    1
    26    26    25    1
    27    27    25    1
    28    28    25    1
    29    29    28    1
    30    30    28    1
    31    31    28    1
    32    32     3    1
    33    33    32    1
    34    34    32    1
    35    35    32    1
    36    36    35    1
    37    37    35    1
    38    38    35    1
    39    39     4    1
    40    40    39    1
    41    41    39    1
    42    42    39    1
    43    43    42    1
    44    44    42    1
    45    45    42    1
    46    46     4    1
    47    47    46    1
    48    48    46    1
    49    49    46    1
    50    50    49    1
    51    51    49    1
    52    52    49    1
    53    53     5   am
    54    54    53    1
    55    55     8    1
    56    56    55   ar
    57    57    56    1
    58    58    56   ar
    59    59    58    1
    60    60    58   ar
    61    61    60    1
    62    62    54   ar
    63    63    62    1
    64    14    16   ar
    65    22    23   ar
    66    54    55   ar
    67    60    62   ar
@<TRIPOS>SUBSTRUCTURE
     1 RES1        1 GROUP             0 ****  ****    0  
