@<TRIPOS>MOLECULE
01
    13    13     1     0     0
SMALL
NO_CHARGES
****
Generated from the CSD

@<TRIPOS>ATOM
     1 O1       4.4265   5.3081  11.7730   O.2       1 RES1   0.0000
     2 O2       5.0502   7.1909  10.9033   O.2       1 RES1   0.0000
     3 N1       4.9390   5.9887  10.8765   N.pl3     1 RES1   0.0000
     4 C1       5.4997   5.2395   9.7252   C.ar      1 RES1   0.0000
     5 C2       5.3412   3.8769   9.6876   C.ar      1 RES1   0.0000
     6 C3       6.1758   5.9366   8.7781   C.ar      1 RES1   0.0000
     7 C4       5.8930   3.2043   8.6255   C.ar      1 RES1   0.0000
     8 C5       6.7321   5.2474   7.7064   C.ar      1 RES1   0.0000
     9 C6       6.5830   3.8780   7.6290   C.ar      1 RES1   0.0000
    10 H1       4.8304   3.4063  10.3960   H         1 RES1   0.0000
    11 H2       6.2847   6.9540   8.8609   H         1 RES1   0.0000
    12 H3       5.8101   2.2169   8.5621   H         1 RES1   0.0000
    13 H4       7.2477   5.7439   7.0098   H         1 RES1   0.0000
@<TRIPOS>BOND
     1     1     3    2
     2     2     3    2
     3     3     4    1
     4     4     5   ar
     5     5     7   ar
     6     6     4   ar
     7     7     9   ar
     8     8     6   ar
     9    10     5    1
    10    11     6    1
    11    12     7    1
    12    13     8    1
    13     8     9   ar
@<TRIPOS>SUBSTRUCTURE
     1 RES1        1 GROUP             0 ****  ****    0  
