@<TRIPOS>MOLECULE
02
    28    28     1     0     0
SMALL
NO_CHARGES
****
Generated from the CSD

@<TRIPOS>ATOM
     1 O6      17.9811  -8.3900 -15.5665   O.3       1 RES2   0.0000
     2 N4      17.9008  -7.6177 -14.5335   N.3       1 RES2   0.0000
     3 C25     17.6276  -6.2596 -12.0385   C.3       1 RES2   0.0000
     4 C26     16.6425  -6.0497 -13.1672   C.3       1 RES2   0.0000
     5 C27     18.9861  -6.5044 -12.6448   C.3       1 RES2   0.0000
     6 C28     16.5432  -7.2157 -14.1218   C.3       1 RES2   0.0000
     7 C29     19.0491  -7.6587 -13.6069   C.3       1 RES2   0.0000
     8 C30     15.8217  -6.7575 -15.3591   C.3       1 RES2   0.0000
     9 C31     15.7943  -8.3841 -13.5295   C.3       1 RES2   0.0000
    10 C32     19.0751  -8.9875 -12.8877   C.3       1 RES2   0.0000
    11 C33     20.3118  -7.5367 -14.4582   C.3       1 RES2   0.0000
    12 H31     17.3811  -7.0816 -11.5526   H         1 RES2   0.0000
    13 H32     15.7681  -5.8473 -12.7910   H         1 RES2   0.0000
    14 H33     16.9002  -5.2302 -13.6542   H         1 RES2   0.0000
    15 H34     19.2233  -5.6922 -13.1393   H         1 RES2   0.0000
    16 H35     19.6343  -6.6023 -11.9525   H         1 RES2   0.0000
    17 H36     14.9802  -6.3713 -15.1828   H         1 RES2   0.0000
    18 H37     16.3478  -6.0680 -15.8503   H         1 RES2   0.0000
    19 H38     15.6961  -7.4677 -16.0126   H         1 RES2   0.0000
    20 H39     15.6033  -8.2572 -12.6082   H         1 RES2   0.0000
    21 H40     14.9754  -8.5675 -13.9928   H         1 RES2   0.0000
    22 H41     16.3256  -9.2191 -13.5886   H         1 RES2   0.0000
    23 H42     18.8098  -8.9468 -11.9708   H         1 RES2   0.0000
    24 H43     18.5255  -9.6639 -13.3166   H         1 RES2   0.0000
    25 H44     19.9878  -9.3881 -12.8791   H         1 RES2   0.0000
    26 H45     21.1026  -7.3505 -13.9046   H         1 RES2   0.0000
    27 H46     20.5057  -8.2848 -14.9903   H         1 RES2   0.0000
    28 H47     20.2374  -6.7575 -15.0473   H         1 RES2   0.0000
@<TRIPOS>BOND
     1     1     2    1
     2     2     6    1
     3     4     3    1
     4     5     3    1
     5     6     4    1
     6     7     2    1
     7     8     6    1
     8     9     6    1
     9    10     7    1
    10    11     7    1
    11    12     3    1
    12    13     4    1
    13    14     4    1
    14    15     5    1
    15    16     5    1
    16    17     8    1
    17    18     8    1
    18    19     8    1
    19    20     9    1
    20    21     9    1
    21    22     9    1
    22    23    10    1
    23    24    10    1
    24    25    10    1
    25    26    11    1
    26    27    11    1
    27    28    11    1
    28     5     7    1
@<TRIPOS>SUBSTRUCTURE
     1 RES2        1 GROUP             0 ****  ****    0  
