@<TRIPOS>MOLECULE
02
    23    23     1     0     0
SMALL
NO_CHARGES
****
Generated from the CSD

@<TRIPOS>ATOM
     1 C22      4.1728   4.5874  -4.4121   C.3       1 RES2   0.0000
     2 C23      3.8672   3.5785  -3.2944   C.2       1 RES2   0.0000
     3 O5       3.9628   2.3880  -3.3970   O.2       1 RES2   0.0000
     4 C24      4.8096   3.9072  -5.6332   C.3       1 RES2   0.0000
     5 H37      5.1523   4.6417  -6.2509   H         1 RES2   0.0000
     6 H38      5.5876   3.3155  -5.3078   H         1 RES2   0.0000
     7 C25      3.8262   3.0683  -6.4476   C.3       1 RES2   0.0000
     8 H39      4.3460   2.7742  -7.2268   H         1 RES2   0.0000
     9 H40      3.5734   2.2451  -5.8553   H         1 RES2   0.0000
    10 C26      2.5921   3.8656  -6.8397   C.3       1 RES2   0.0000
    11 H41      2.8780   4.5860  -7.4047   H         1 RES2   0.0000
    12 H42      1.9144   3.2789  -7.3304   H         1 RES2   0.0000
    13 C27      1.9194   4.4344  -5.5962   C.3       1 RES2   0.0000
    14 H43      1.0481   4.9811  -5.9590   H         1 RES2   0.0000
    15 H44      1.6357   3.6392  -4.8812   H         1 RES2   0.0000
    16 C28      2.8776   5.3250  -4.8313   C.3       1 RES2   0.0000
    17 H45      3.1336   6.0914  -5.4926   H         1 RES2   0.0000
    18 H46      2.4347   5.6790  -4.0676   H         1 RES2   0.0000
    19 O6       3.4305   4.2020  -2.1936   O.3       1 RES2   0.0000
    20 C29      3.0884   3.3769  -1.0645   C.3       1 RES2   0.0000
    21 H47      2.7860   3.9316  -0.3420   H         1 RES2   0.0000
    22 H48      3.8608   2.8804  -0.7842   H         1 RES2   0.0000
    23 H49      2.3895   2.7673  -1.3127   H         1 RES2   0.0000
@<TRIPOS>BOND
     1     2     1    1
     2     3     2    2
     3     4     1    1
     4     5     4    1
     5     6     4    1
     6     7     4    1
     7     8     7    1
     8     9     7    1
     9    10     7    1
    10    11    10    1
    11    12    10    1
    12    13    10    1
    13    14    13    1
    14    15    13    1
    15    16     1    1
    16    17    16    1
    17    18    16    1
    18    19     2    1
    19    20    19    1
    20    21    20    1
    21    22    20    1
    22    23    20    1
    23    13    16    1
@<TRIPOS>SUBSTRUCTURE
     1 RES2        1 GROUP             0 ****  ****    0  
