@<TRIPOS>MOLECULE
PIFXEI
    87    89     1     0     0
SMALL
NO_CHARGES
****
Generated from the CSD

@<TRIPOS>ATOM
     1 C1       3.8389  11.9792  -1.6448   C.3       1 RES1   0.0000
     2 H1       4.7400  12.2977  -1.5562   H         1 RES1   0.0000
     3 H2       3.4078  11.9966  -0.7876   H         1 RES1   0.0000
     4 H3       3.3593  12.5431  -2.2558   H         1 RES1   0.0000
     5 C2       2.4409  10.0420  -2.3197   C.3       1 RES1   0.0000
     6 H4       1.9390  10.6374  -2.8810   H         1 RES1   0.0000
     7 H5       2.0276   9.9934  -1.4543   H         1 RES1   0.0000
     8 H6       2.4590   9.1685  -2.7169   H         1 RES1   0.0000
     9 C3       4.7219   9.6737  -1.3217   C.3       1 RES1   0.0000
    10 H7       5.6065  10.0439  -1.2730   H         1 RES1   0.0000
    11 H8       4.7630   8.7960  -1.7100   H         1 RES1   0.0000
    12 H9       4.3513   9.6158  -0.4387   H         1 RES1   0.0000
    13 C4       3.8549  10.5580  -2.1732   C.3       1 RES1   0.0000
    14 O1       4.4656  10.7171  -3.4918   O.3       1 RES1   0.0000
    15 C5       4.6038   9.6666  -4.3252   C.2       1 RES1   0.0000
    16 O2       4.2619   8.5237  -4.0701   O.2       1 RES1   0.0000
    17 N1       5.1792  10.0596  -5.4719   N.am      1 RES1   0.0000
    18 H10      5.3680  10.8689  -5.5583   H         1 RES1   0.0000
    19 C6       5.2265   9.1775  -6.6469   C.3       1 RES1   0.0000
    20 C7       6.0541   7.9081  -6.3479   C.2       1 RES1   0.0000
    21 O3       5.8111   6.8600  -6.9266   O.2       1 RES1   0.0000
    22 C8       3.8096   8.7939  -7.1007   C.3       1 RES1   0.0000
    23 H11      3.3322   8.3662  -6.3528   H         1 RES1   0.0000
    24 H12      3.9082   8.1503  -7.8123   H         1 RES1   0.0000
    25 C9       3.0457  10.0150  -7.6159   C.3       1 RES1   0.0000
    26 H13      2.9219  10.5713  -6.8830   H         1 RES1   0.0000
    27 H14      2.0892   9.7306  -7.8486   H         1 RES1   0.0000
    28 C10      3.7684  10.6809  -8.7638   C.3       1 RES1   0.0000
    29 H15      3.8281   9.9621  -9.5205   H         1 RES1   0.0000
    30 H16      3.2390  11.4780  -9.0110   H         1 RES1   0.0000
    31 C11      5.1705  11.0826  -8.3652   C.3       1 RES1   0.0000
    32 H17      5.1216  11.8452  -7.7328   H         1 RES1   0.0000
    33 H18      5.6473  11.4328  -9.1164   H         1 RES1   0.0000
    34 C12      5.9550   9.9066  -7.7886   C.3       1 RES1   0.0000
    35 H19      6.8470  10.2354  -7.4599   H         1 RES1   0.0000
    36 H20      6.1015   9.2259  -8.4946   H         1 RES1   0.0000
    37 N2       7.0747   8.0511  -5.4829   N.am      1 RES1   0.0000
    38 H21      7.2367   8.8291  -5.2180   H         1 RES1   0.0000
    39 C13      7.9897   6.9646  -5.1622   C.3       1 RES1   0.0000
    40 H22      8.7910   7.1218  -5.5928   H         1 RES1   0.0000
    41 H23      7.5907   6.1924  -5.4995   H         1 RES1   0.0000
    42 C14      8.3082   6.8123  -3.6676   C.3       1 RES1   0.0000
    43 C15      7.0136   6.5828  -2.8539   C.3       1 RES1   0.0000
    44 H24      6.4668   7.3706  -2.9225   H         1 RES1   0.0000
    45 H25      7.2539   6.4761  -1.8654   H         1 RES1   0.0000
    46 C16      6.2021   5.3671  -3.2536   C.2       1 RES1   0.0000
    47 O4       6.5585   4.2214  -2.9778   O.2       1 RES1   0.0000
    48 C17      9.3039   5.6377  -3.5310   C.3       1 RES1   0.0000
    49 H26     10.0284   5.8217  -4.1834   H         1 RES1   0.0000
    50 H27      8.8900   4.8436  -3.7844   H         1 RES1   0.0000
    51 C18      9.9053   5.5014  -2.1314   C.3       1 RES1   0.0000
    52 H28     10.5761   4.7444  -2.1159   H         1 RES1   0.0000
    53 H29      9.2048   5.2578  -1.4682   H         1 RES1   0.0000
    54 C19     10.5708   6.7940  -1.6896   C.3       1 RES1   0.0000
    55 H30     11.3897   7.0052  -2.3870   H         1 RES1   0.0000
    56 H31     10.8873   6.7162  -0.7945   H         1 RES1   0.0000
    57 C20      9.5913   7.9603  -1.7549   C.3       1 RES1   0.0000
    58 H32     10.0444   8.8117  -1.4975   H         1 RES1   0.0000
    59 H33      8.8428   7.8527  -1.1262   H         1 RES1   0.0000
    60 C21      8.9856   8.0981  -3.1475   C.3       1 RES1   0.0000
    61 H34      9.7255   8.3574  -3.7965   H         1 RES1   0.0000
    62 H35      8.3118   8.8013  -3.1453   H         1 RES1   0.0000
    63 N3       5.0606   5.6179  -3.8966   N.am      1 RES1   0.0000
    64 H36      4.8430   6.3925  -4.0106   H         1 RES1   0.0000
    65 C22      4.1728   4.5874  -4.4121   C.3       1 RES1   0.0000
    66 C23      3.8672   3.5785  -3.2944   C.2       1 RES1   0.0000
    67 O5       3.9628   2.3880  -3.3970   O.2       1 RES1   0.0000
    68 C24      4.8096   3.9072  -5.6332   C.3       1 RES1   0.0000
    69 H37      5.1523   4.6417  -6.2509   H         1 RES1   0.0000
    70 H38      5.5876   3.3155  -5.3078   H         1 RES1   0.0000
    71 C25      3.8262   3.0683  -6.4476   C.3       1 RES1   0.0000
    72 H39      4.3460   2.7742  -7.2268   H         1 RES1   0.0000
    73 H40      3.5734   2.2451  -5.8553   H         1 RES1   0.0000
    74 C26      2.5921   3.8656  -6.8397   C.3       1 RES1   0.0000
    75 H41      2.8780   4.5860  -7.4047   H         1 RES1   0.0000
    76 H42      1.9144   3.2789  -7.3304   H         1 RES1   0.0000
    77 C27      1.9194   4.4344  -5.5962   C.3       1 RES1   0.0000
    78 H43      1.0481   4.9811  -5.9590   H         1 RES1   0.0000
    79 H44      1.6357   3.6392  -4.8812   H         1 RES1   0.0000
    80 C28      2.8776   5.3250  -4.8313   C.3       1 RES1   0.0000
    81 H45      3.1336   6.0914  -5.4926   H         1 RES1   0.0000
    82 H46      2.4347   5.6790  -4.0676   H         1 RES1   0.0000
    83 O6       3.4305   4.2020  -2.1936   O.3       1 RES1   0.0000
    84 C29      3.0884   3.3769  -1.0645   C.3       1 RES1   0.0000
    85 H47      2.7860   3.9316  -0.3420   H         1 RES1   0.0000
    86 H48      3.8608   2.8804  -0.7842   H         1 RES1   0.0000
    87 H49      2.3895   2.7673  -1.3127   H         1 RES1   0.0000
@<TRIPOS>BOND
     1     1     2    1
     2     3     1    1
     3     4     1    1
     4     5     6    1
     5     7     5    1
     6     8     5    1
     7     9    10    1
     8    11     9    1
     9    12     9    1
    10    13     1    1
    11    14    13    1
    12    15    14    1
    13    16    15    2
    14    17    15   am
    15    18    17    1
    16    19    17    1
    17    20    19    1
    18    21    20    2
    19    22    19    1
    20    23    22    1
    21    24    22    1
    22    25    22    1
    23    26    25    1
    24    27    25    1
    25    28    25    1
    26    29    28    1
    27    30    28    1
    28    31    28    1
    29    32    31    1
    30    33    31    1
    31    34    19    1
    32    35    34    1
    33    36    34    1
    34    37    20   am
    35    38    37    1
    36    39    37    1
    37    40    39    1
    38    41    39    1
    39    42    39    1
    40    43    42    1
    41    44    43    1
    42    45    43    1
    43    46    43    1
    44    47    46    2
    45    48    42    1
    46    49    48    1
    47    50    48    1
    48    51    48    1
    49    52    51    1
    50    53    51    1
    51    54    51    1
    52    55    54    1
    53    56    54    1
    54    57    54    1
    55    58    57    1
    56    59    57    1
    57    60    42    1
    58    61    60    1
    59    62    60    1
    60    63    46   am
    61    64    63    1
    62    65    63    1
    63    66    65    1
    64    67    66    2
    65    68    65    1
    66    69    68    1
    67    70    68    1
    68    71    68    1
    69    72    71    1
    70    73    71    1
    71    74    71    1
    72    75    74    1
    73    76    74    1
    74    77    74    1
    75    78    77    1
    76    79    77    1
    77    80    65    1
    78    81    80    1
    79    82    80    1
    80    83    66    1
    81    84    83    1
    82    85    84    1
    83    86    84    1
    84    87    84    1
    85     5    13    1
    86     9    13    1
    87    31    34    1
    88    57    60    1
    89    77    80    1
@<TRIPOS>SUBSTRUCTURE
     1 RES1        1 GROUP             0 ****  ****    0  
@<TRIPOS>CRYSIN
   10.4076   17.4041   17.7509   90.0000  103.3340   90.0000    14     1
