@<TRIPOS>MOLECULE
01
    34    34     1     0     0
SMALL
NO_CHARGES
****
Generated from the CSD

@<TRIPOS>ATOM
     1 C1       3.8389  11.9792  -1.6448   C.3       1 RES1   0.0000
     2 H1       4.7400  12.2977  -1.5562   H         1 RES1   0.0000
     3 H2       3.4078  11.9966  -0.7876   H         1 RES1   0.0000
     4 H3       3.3593  12.5431  -2.2558   H         1 RES1   0.0000
     5 C2       2.4409  10.0420  -2.3197   C.3       1 RES1   0.0000
     6 H4       1.9390  10.6374  -2.8810   H         1 RES1   0.0000
     7 H5       2.0276   9.9934  -1.4543   H         1 RES1   0.0000
     8 H6       2.4590   9.1685  -2.7169   H         1 RES1   0.0000
     9 C3       4.7219   9.6737  -1.3217   C.3       1 RES1   0.0000
    10 H7       5.6065  10.0439  -1.2730   H         1 RES1   0.0000
    11 H8       4.7630   8.7960  -1.7100   H         1 RES1   0.0000
    12 H9       4.3513   9.6158  -0.4387   H         1 RES1   0.0000
    13 C4       3.8549  10.5580  -2.1732   C.3       1 RES1   0.0000
    14 O1       4.4656  10.7171  -3.4918   O.3       1 RES1   0.0000
    15 C5       4.6038   9.6666  -4.3252   C.2       1 RES1   0.0000
    16 O2       4.2619   8.5237  -4.0701   O.2       1 RES1   0.0000
    17 N1       5.1792  10.0596  -5.4719   N.am      1 RES1   0.0000
    18 H10      5.3680  10.8689  -5.5583   H         1 RES1   0.0000
    19 C6       5.2265   9.1775  -6.6469   C.3       1 RES1   0.0000
    20 C8       3.8096   8.7939  -7.1007   C.3       1 RES1   0.0000
    21 H11      3.3322   8.3662  -6.3528   H         1 RES1   0.0000
    22 H12      3.9082   8.1503  -7.8123   H         1 RES1   0.0000
    23 C9       3.0457  10.0150  -7.6159   C.3       1 RES1   0.0000
    24 H13      2.9219  10.5713  -6.8830   H         1 RES1   0.0000
    25 H14      2.0892   9.7306  -7.8486   H         1 RES1   0.0000
    26 C10      3.7684  10.6809  -8.7638   C.3       1 RES1   0.0000
    27 H15      3.8281   9.9621  -9.5205   H         1 RES1   0.0000
    28 H16      3.2390  11.4780  -9.0110   H         1 RES1   0.0000
    29 C11      5.1705  11.0826  -8.3652   C.3       1 RES1   0.0000
    30 H17      5.1216  11.8452  -7.7328   H         1 RES1   0.0000
    31 H18      5.6473  11.4328  -9.1164   H         1 RES1   0.0000
    32 C12      5.9550   9.9066  -7.7886   C.3       1 RES1   0.0000
    33 H19      6.8470  10.2354  -7.4599   H         1 RES1   0.0000
    34 H20      6.1015   9.2259  -8.4946   H         1 RES1   0.0000
@<TRIPOS>BOND
     1     1     2    1
     2     3     1    1
     3     4     1    1
     4     5     6    1
     5     7     5    1
     6     8     5    1
     7     9    10    1
     8    11     9    1
     9    12     9    1
    10    13     1    1
    11    14    13    1
    12    15    14    1
    13    16    15    2
    14    17    15   am
    15    18    17    1
    16    19    17    1
    17    20    19    1
    18    21    20    1
    19    22    20    1
    20    23    20    1
    21    24    23    1
    22    25    23    1
    23    26    23    1
    24    27    26    1
    25    28    26    1
    26    29    26    1
    27    30    29    1
    28    31    29    1
    29    32    19    1
    30    33    32    1
    31    34    32    1
    32     5    13    1
    33     9    13    1
    34    29    32    1
@<TRIPOS>SUBSTRUCTURE
     1 RES1        1 GROUP             0 ****  ****    0  
