@<TRIPOS>MOLECULE
01
    16    17     1     0     0
SMALL
NO_CHARGES
****
Generated from the CSD

@<TRIPOS>ATOM
     1 C4       4.5634  14.6017  20.4441   C.ar      1 RES1   0.0000
     2 C5       5.5869  14.7610  19.5587   C.ar      1 RES1   0.0000
     3 H4       5.9835  14.0183  19.1655   H         1 RES1   0.0000
     4 C6       6.0453  16.0648  19.2416   C.ar      1 RES1   0.0000
     5 H5       6.7527  16.1680  18.6480   H         1 RES1   0.0000
     6 C7       5.4775  17.1531  19.7845   C.ar      1 RES1   0.0000
     7 H6       5.7900  17.9969  19.5486   H         1 RES1   0.0000
     8 C8       3.7577  18.1181  21.3193   C.ar      1 RES1   0.0000
     9 H7       4.0231  18.9865  21.1265   H         1 RES1   0.0000
    10 C9       2.7519  17.8981  22.1843   C.ar      1 RES1   0.0000
    11 H8       2.3164  18.6095  22.5953   H         1 RES1   0.0000
    12 C10      2.3747  16.5764  22.4481   C.ar      1 RES1   0.0000
    13 H9       1.6616  16.4395  23.0291   H         1 RES1   0.0000
    14 C11      3.9578  15.7417  21.0453   C.ar      1 RES1   0.0000
    15 C12      4.4059  17.0387  20.7104   C.ar      1 RES1   0.0000
    16 N2       2.9515  15.5195  21.9382   N.ar      1 RES1   0.0000
@<TRIPOS>BOND
     1     1     2   ar
     2     2     3    1
     3     4     2   ar
     4     5     4    1
     5     6     4   ar
     6     7     6    1
     7     8     9    1
     8    10     8   ar
     9    11    10    1
    10    12    10   ar
    11    13    12    1
    12    14     1   ar
    13    15     6   ar
    14    16    12   ar
    15     8    15   ar
    16    14    15   ar
    17    14    16   ar
@<TRIPOS>SUBSTRUCTURE
     1 RES1        1 GROUP             0 ****  ****    0  
