@<TRIPOS>MOLECULE
02
    34    34     1     0     0
SMALL
NO_CHARGES
****
Generated from the CSD

@<TRIPOS>ATOM
     1 C20      2.6557  10.8565  16.9027   C.3       1 RES2   0.0000
     2 H15      1.7016  10.9126  17.1183   H         1 RES2   0.0000
     3 C21      3.2589  12.2792  16.8469   C.3       1 RES2   0.0000
     4 H16      3.0649  12.7347  17.6815   H         1 RES2   0.0000
     5 H17      4.2226  12.2096  16.7657   H         1 RES2   0.0000
     6 C22      2.7347  13.1072  15.7079   C.ar      1 RES2   0.0000
     7 C23      1.6591  13.9375  15.8499   C.ar      1 RES2   0.0000
     8 H18      1.2423  14.0138  16.6769   H         1 RES2   0.0000
     9 C24      1.1749  14.6802  14.7490   C.ar      1 RES2   0.0000
    10 H19      0.4401  15.2457  14.8301   H         1 RES2   0.0000
    11 C25      1.8434  14.5277  13.5440   C.ar      1 RES2   0.0000
    12 H20      1.5502  15.0101  12.8032   H         1 RES2   0.0000
    13 C26      2.8563  13.7355  13.4121   C.ar      1 RES2   0.0000
    14 H21      3.2700  13.6547  12.5825   H         1 RES2   0.0000
    15 C27      3.3374  13.0174  14.4648   C.ar      1 RES2   0.0000
    16 H22      4.0727  12.4609  14.3481   H         1 RES2   0.0000
    17 C28      1.8145  10.0486  14.7616   C.2       1 RES2   0.0000
    18 C29      1.3177   9.1982  12.5318   C.3       1 RES2   0.0000
    19 C30      0.4168   8.0964  12.9554   C.3       1 RES2   0.0000
    20 H23      0.9359   7.3940  13.3486   H         1 RES2   0.0000
    21 H24     -0.0537   7.7575  12.1893   H         1 RES2   0.0000
    22 H25     -0.2147   8.4285  13.5972   H         1 RES2   0.0000
    23 C31      2.2273   8.7179  11.4105   C.3       1 RES2   0.0000
    24 H26      2.8274   9.4226  11.1594   H         1 RES2   0.0000
    25 H27      1.6945   8.4644  10.6520   H         1 RES2   0.0000
    26 H28      2.7332   7.9595  11.7124   H         1 RES2   0.0000
    27 C32      0.5773  10.4638  12.1031   C.3       1 RES2   0.0000
    28 H29     -0.0157  10.7420  12.8032   H         1 RES2   0.0000
    29 H30      0.0734  10.2843  11.3065   H         1 RES2   0.0000
    30 H31      1.2144  11.1617  11.9280   H         1 RES2   0.0000
    31 N4       2.8244  10.1698  15.6546   N.am      1 RES2   0.0000
    32 H34      3.5896   9.8242  15.4694   H         1 RES2   0.0000
    33 O3       0.6654  10.3448  14.9900   O.2       1 RES2   0.0000
    34 O4       2.2784   9.5235  13.6041   O.3       1 RES2   0.0000
@<TRIPOS>BOND
     1     1     2    1
     2     3     1    1
     3     4     3    1
     4     5     3    1
     5     6     3    1
     6     7     6   ar
     7     8     7    1
     8     9     7   ar
     9    10     9    1
    10    11     9   ar
    11    12    11    1
    12    13    11   ar
    13    14    13    1
    14    15     6   ar
    15    16    15    1
    16    17    31   am
    17    18    19    1
    18    19    20    1
    19    21    19    1
    20    22    19    1
    21    23    18    1
    22    24    23    1
    23    25    23    1
    24    26    23    1
    25    27    18    1
    26    28    27    1
    27    29    27    1
    28    30    27    1
    29    31     1    1
    30    32    31    1
    31    33    17    2
    32    34    17    1
    33    13    15   ar
    34    18    34    1
@<TRIPOS>SUBSTRUCTURE
     1 RES2        1 GROUP             0 ****  ****    0  
