@<TRIPOS>MOLECULE
POVVII
    74    77     1     0     0
SMALL
NO_CHARGES
****
Generated from the CSD

@<TRIPOS>ATOM
     1 C1       4.5553  12.1288  20.7206   C.2       1 RES1   0.0000
     2 C2       3.7450  11.0315  21.3599   C.3       1 RES1   0.0000
     3 H1       2.8623  11.3681  21.5780   H         1 RES1   0.0000
     4 H2       4.1730  10.7532  22.1843   H         1 RES1   0.0000
     5 C3       3.6119   9.8355  20.4289   C.3       1 RES1   0.0000
     6 H3       4.5143   9.5774  20.1447   H         1 RES1   0.0000
     7 C4       4.5634  14.6017  20.4441   C.ar      1 RES1   0.0000
     8 C5       5.5869  14.7610  19.5587   C.ar      1 RES1   0.0000
     9 H4       5.9835  14.0183  19.1655   H         1 RES1   0.0000
    10 C6       6.0453  16.0648  19.2416   C.ar      1 RES1   0.0000
    11 H5       6.7527  16.1680  18.6480   H         1 RES1   0.0000
    12 C7       5.4775  17.1531  19.7845   C.ar      1 RES1   0.0000
    13 H6       5.7900  17.9969  19.5486   H         1 RES1   0.0000
    14 C8       3.7577  18.1181  21.3193   C.ar      1 RES1   0.0000
    15 H7       4.0231  18.9865  21.1265   H         1 RES1   0.0000
    16 C9       2.7519  17.8981  22.1843   C.ar      1 RES1   0.0000
    17 H8       2.3164  18.6095  22.5953   H         1 RES1   0.0000
    18 C10      2.3747  16.5764  22.4481   C.ar      1 RES1   0.0000
    19 H9       1.6616  16.4395  23.0291   H         1 RES1   0.0000
    20 C11      3.9578  15.7417  21.0453   C.ar      1 RES1   0.0000
    21 C12      4.4059  17.0387  20.7104   C.ar      1 RES1   0.0000
    22 C13      2.9814   8.6192  21.1265   C.ar      1 RES1   0.0000
    23 C14      3.5298   8.1569  22.3112   C.ar      1 RES1   0.0000
    24 H10      4.2495   8.6102  22.6917   H         1 RES1   0.0000
    25 C15      3.0335   7.0439  22.9276   C.ar      1 RES1   0.0000
    26 H11      3.4047   6.7589  23.7318   H         1 RES1   0.0000
    27 C16      1.9953   6.3438  22.3873   C.ar      1 RES1   0.0000
    28 H12      1.6510   5.5920  22.8109   H         1 RES1   0.0000
    29 C17      1.4788   6.7746  21.2127   C.ar      1 RES1   0.0000
    30 H13      0.7703   6.3056  20.8297   H         1 RES1   0.0000
    31 C18      1.9695   7.8899  20.5658   C.ar      1 RES1   0.0000
    32 H14      1.6120   8.1480  19.7490   H         1 RES1   0.0000
    33 C19      3.3835  10.0890  18.0087   C.2       1 RES1   0.0000
    34 C20      2.6557  10.8565  16.9027   C.3       1 RES1   0.0000
    35 H15      1.7016  10.9126  17.1183   H         1 RES1   0.0000
    36 C21      3.2589  12.2792  16.8469   C.3       1 RES1   0.0000
    37 H16      3.0649  12.7347  17.6815   H         1 RES1   0.0000
    38 H17      4.2226  12.2096  16.7657   H         1 RES1   0.0000
    39 C22      2.7347  13.1072  15.7079   C.ar      1 RES1   0.0000
    40 C23      1.6591  13.9375  15.8499   C.ar      1 RES1   0.0000
    41 H18      1.2423  14.0138  16.6769   H         1 RES1   0.0000
    42 C24      1.1749  14.6802  14.7490   C.ar      1 RES1   0.0000
    43 H19      0.4401  15.2457  14.8301   H         1 RES1   0.0000
    44 C25      1.8434  14.5277  13.5440   C.ar      1 RES1   0.0000
    45 H20      1.5502  15.0101  12.8032   H         1 RES1   0.0000
    46 C26      2.8563  13.7355  13.4121   C.ar      1 RES1   0.0000
    47 H21      3.2700  13.6547  12.5825   H         1 RES1   0.0000
    48 C27      3.3374  13.0174  14.4648   C.ar      1 RES1   0.0000
    49 H22      4.0727  12.4609  14.3481   H         1 RES1   0.0000
    50 C28      1.8145  10.0486  14.7616   C.2       1 RES1   0.0000
    51 C29      1.3177   9.1982  12.5318   C.3       1 RES1   0.0000
    52 C30      0.4168   8.0964  12.9554   C.3       1 RES1   0.0000
    53 H23      0.9359   7.3940  13.3486   H         1 RES1   0.0000
    54 H24     -0.0537   7.7575  12.1893   H         1 RES1   0.0000
    55 H25     -0.2147   8.4285  13.5972   H         1 RES1   0.0000
    56 C31      2.2273   8.7179  11.4105   C.3       1 RES1   0.0000
    57 H26      2.8274   9.4226  11.1594   H         1 RES1   0.0000
    58 H27      1.6945   8.4644  10.6520   H         1 RES1   0.0000
    59 H28      2.7332   7.9595  11.7124   H         1 RES1   0.0000
    60 C32      0.5773  10.4638  12.1031   C.3       1 RES1   0.0000
    61 H29     -0.0157  10.7420  12.8032   H         1 RES1   0.0000
    62 H30      0.0734  10.2843  11.3065   H         1 RES1   0.0000
    63 H31      1.2144  11.1617  11.9280   H         1 RES1   0.0000
    64 N1       4.0155  13.3585  20.8297   N.am      1 RES1   0.0000
    65 H32      3.2305  13.3899  21.1797   H         1 RES1   0.0000
    66 N2       2.9515  15.5195  21.9382   N.ar      1 RES1   0.0000
    67 N3       2.8801  10.2506  19.2416   N.am      1 RES1   0.0000
    68 H33      2.1042  10.6096  19.3304   H         1 RES1   0.0000
    69 N4       2.8244  10.1698  15.6546   N.am      1 RES1   0.0000
    70 H34      3.5896   9.8242  15.4694   H         1 RES1   0.0000
    71 O1       5.6259  11.9201  20.1676   O.2       1 RES1   0.0000
    72 O2       4.3943   9.4562  17.7830   O.2       1 RES1   0.0000
    73 O3       0.6654  10.3448  14.9900   O.2       1 RES1   0.0000
    74 O4       2.2784   9.5235  13.6041   O.3       1 RES1   0.0000
@<TRIPOS>BOND
     1     1     2    1
     2     2     3    1
     3     4     2    1
     4     5     2    1
     5     6     5    1
     6     7     8   ar
     7     8     9    1
     8    10     8   ar
     9    11    10    1
    10    12    10   ar
    11    13    12    1
    12    14    15    1
    13    16    14   ar
    14    17    16    1
    15    18    16   ar
    16    19    18    1
    17    20     7   ar
    18    21    12   ar
    19    22     5    1
    20    23    22   ar
    21    24    23    1
    22    25    23   ar
    23    26    25    1
    24    27    25   ar
    25    28    27    1
    26    29    27   ar
    27    30    29    1
    28    31    22   ar
    29    32    31    1
    30    33    34    1
    31    34    35    1
    32    36    34    1
    33    37    36    1
    34    38    36    1
    35    39    36    1
    36    40    39   ar
    37    41    40    1
    38    42    40   ar
    39    43    42    1
    40    44    42   ar
    41    45    44    1
    42    46    44   ar
    43    47    46    1
    44    48    39   ar
    45    49    48    1
    46    50    69   am
    47    51    52    1
    48    52    53    1
    49    54    52    1
    50    55    52    1
    51    56    51    1
    52    57    56    1
    53    58    56    1
    54    59    56    1
    55    60    51    1
    56    61    60    1
    57    62    60    1
    58    63    60    1
    59    64     1   am
    60    65    64    1
    61    66    18   ar
    62    67     5    1
    63    68    67    1
    64    69    34    1
    65    70    69    1
    66    71     1    2
    67    72    33    2
    68    73    50    2
    69    74    50    1
    70     7    64    1
    71    14    21   ar
    72    20    21   ar
    73    20    66   ar
    74    29    31   ar
    75    33    67   am
    76    46    48   ar
    77    51    74    1
@<TRIPOS>SUBSTRUCTURE
     1 RES1        1 GROUP             0 ****  ****    0  
@<TRIPOS>CRYSIN
    5.0643   22.4400   25.3680   90.0000   90.0000   90.0000    19     1
