@<TRIPOS>MOLECULE
02
    14    14     1     0     0
SMALL
NO_CHARGES
****
Generated from the CSD

@<TRIPOS>ATOM
     1 C14     11.7547  14.8754   3.9953   C.3       1 RES2   0.0000
     2 H17     11.0218  14.4688   4.5204   H         1 RES2   0.0000
     3 H18     12.3205  15.4092   4.6086   H         1 RES2   0.0000
     4 C15     12.5748  13.8043   3.3332   C.ar      1 RES2   0.0000
     5 C16     13.7922  13.4375   3.8846   C.ar      1 RES2   0.0000
     6 H19     14.1202  13.9018   4.6466   H         1 RES2   0.0000
     7 C17     14.5378  12.4048   3.3402   C.ar      1 RES2   0.0000
     8 H20     15.3635  12.1524   3.7370   H         1 RES2   0.0000
     9 C18     14.0778  11.7434   2.2204   C.ar      1 RES2   0.0000
    10 H21     14.5931  11.0426   1.8369   H         1 RES2   0.0000
    11 C19     12.8674  12.0999   1.6562   C.ar      1 RES2   0.0000
    12 H22     12.5487  11.6373   0.8904   H         1 RES2   0.0000
    13 C20     12.1170  13.1298   2.2038   C.ar      1 RES2   0.0000
    14 H23     11.2889  13.3763   1.8075   H         1 RES2   0.0000
@<TRIPOS>BOND
     1     2     1    1
     2     3     1    1
     3     4     1    1
     4     5     4   ar
     5     6     5    1
     6     7     5   ar
     7     8     7    1
     8     9     7   ar
     9    10     9    1
    10    11     9   ar
    11    12    11    1
    12    13     4   ar
    13    14    13    1
    14    11    13   ar
@<TRIPOS>SUBSTRUCTURE
     1 RES2        1 GROUP             0 ****  ****    0  
