@<TRIPOS>MOLECULE
QAMROL
    55    56     1     0     0
SMALL
NO_CHARGES
****
Generated from the CSD

@<TRIPOS>ATOM
     1 S1       5.1611  23.4224   2.5590   S.o2      1 RES1   0.0000
     2 O1       5.2251  23.6010   3.9787   O.2       1 RES1   0.0000
     3 O2       6.2515  23.8755   1.7519   O.2       1 RES1   0.0000
     4 O3       3.0879  20.1824   1.4449   O.2       1 RES1   0.0000
     5 O4       4.0913  19.7526  -0.5150   O.3       1 RES1   0.0000
     6 H1       3.4112  19.1258  -0.5882   H         1 RES1   0.0000
     7 O5       9.7076  16.5000   4.4584   O.2       1 RES1   0.0000
     8 O6      11.2079  15.7280   2.9519   O.3       1 RES1   0.0000
     9 O7       1.0945  23.7742   4.3439   O.2       1 RES1   0.0000
    10 O8       2.6761  22.4048   3.8231   O.2       1 RES1   0.0000
    11 N1       4.9884  21.8526   2.2637   N.pl3     1 RES1   0.0000
    12 H2       4.3640  21.5840   2.6792   H         1 RES1   0.0000
    13 N2       9.6270  17.1279   2.2819   N.am      1 RES1   0.0000
    14 H3       9.8691  16.9235   1.4760   H         1 RES1   0.0000
    15 N3       2.0571  23.4485   3.6552   N.pl3     1 RES1   0.0000
    16 C1       5.1264  21.3402   0.8893   C.3       1 RES1   0.0000
    17 H4       5.0275  22.1060   0.2540   H         1 RES1   0.0000
    18 C2       3.9841  20.3739   0.6578   C.2       1 RES1   0.0000
    19 C3       6.4958  20.7013   0.6674   C.3       1 RES1   0.0000
    20 H5       6.5649  20.4050  -0.2749   H         1 RES1   0.0000
    21 H6       7.1977  21.3835   0.8225   H         1 RES1   0.0000
    22 C4       6.7488  19.5134   1.5786   C.3       1 RES1   0.0000
    23 H7       6.6484  19.8069   2.5188   H         1 RES1   0.0000
    24 H8       6.0602  18.8251   1.4027   H         1 RES1   0.0000
    25 C5       8.1213  18.8890   1.4048   C.3       1 RES1   0.0000
    26 H9       8.1987  18.5035   0.4957   H         1 RES1   0.0000
    27 H10      8.8175  19.5857   1.5054   H         1 RES1   0.0000
    28 C6       8.3375  17.8051   2.4332   C.3       1 RES1   0.0000
    29 H11      8.2870  18.2027   3.3380   H         1 RES1   0.0000
    30 H12      7.6106  17.1379   2.3551   H         1 RES1   0.0000
    31 C7      10.1399  16.4513   3.3001   C.2       1 RES1   0.0000
    32 C8       3.7333  24.3450   1.9952   C.ar      1 RES1   0.0000
    33 C9       2.4482  24.3505   2.5573   C.ar      1 RES1   0.0000
    34 C10      1.4727  25.2180   2.1011   C.ar      1 RES1   0.0000
    35 H13      0.6070  25.2072   2.4915   H         1 RES1   0.0000
    36 C11      1.7597  26.0989   1.0786   C.ar      1 RES1   0.0000
    37 H14      1.0928  26.7008   0.7674   H         1 RES1   0.0000
    38 C12      3.0125  26.1061   0.5102   C.ar      1 RES1   0.0000
    39 H15      3.2054  26.7008  -0.2043   H         1 RES1   0.0000
    40 C13      3.9876  25.2501   0.9754   C.ar      1 RES1   0.0000
    41 H16      4.8545  25.2799   0.5882   H         1 RES1   0.0000
    42 C14     11.7547  14.8754   3.9953   C.3       1 RES1   0.0000
    43 H17     11.0218  14.4688   4.5204   H         1 RES1   0.0000
    44 H18     12.3205  15.4092   4.6086   H         1 RES1   0.0000
    45 C15     12.5748  13.8043   3.3332   C.ar      1 RES1   0.0000
    46 C16     13.7922  13.4375   3.8846   C.ar      1 RES1   0.0000
    47 H19     14.1202  13.9018   4.6466   H         1 RES1   0.0000
    48 C17     14.5378  12.4048   3.3402   C.ar      1 RES1   0.0000
    49 H20     15.3635  12.1524   3.7370   H         1 RES1   0.0000
    50 C18     14.0778  11.7434   2.2204   C.ar      1 RES1   0.0000
    51 H21     14.5931  11.0426   1.8369   H         1 RES1   0.0000
    52 C19     12.8674  12.0999   1.6562   C.ar      1 RES1   0.0000
    53 H22     12.5487  11.6373   0.8904   H         1 RES1   0.0000
    54 C20     12.1170  13.1298   2.2038   C.ar      1 RES1   0.0000
    55 H23     11.2889  13.3763   1.8075   H         1 RES1   0.0000
@<TRIPOS>BOND
     1     1     2    2
     2     3     1    2
     3     4    18    2
     4     5     6    1
     5     7    31    2
     6     8    31    1
     7     9    15    2
     8    10    15    2
     9    11     1    1
    10    12    11    1
    11    13    14    1
    12    15    33    1
    13    16    11    1
    14    17    16    1
    15    18     5    1
    16    19    16    1
    17    20    19    1
    18    21    19    1
    19    22    19    1
    20    23    22    1
    21    24    22    1
    22    25    22    1
    23    26    25    1
    24    27    25    1
    25    28    13    1
    26    29    28    1
    27    30    28    1
    28    31    13   am
    29    32     1    1
    30    33    32   ar
    31    34    33   ar
    32    35    34    1
    33    36    34   ar
    34    37    36    1
    35    38    36   ar
    36    39    38    1
    37    40    32   ar
    38    41    40    1
    39    42     8    1
    40    43    42    1
    41    44    42    1
    42    45    42    1
    43    46    45   ar
    44    47    46    1
    45    48    46   ar
    46    49    48    1
    47    50    48   ar
    48    51    50    1
    49    52    50   ar
    50    53    52    1
    51    54    45   ar
    52    55    54    1
    53    16    18    1
    54    25    28    1
    55    38    40   ar
    56    52    54   ar
@<TRIPOS>SUBSTRUCTURE
     1 RES1        1 GROUP             0 ****  ****    0  
@<TRIPOS>CRYSIN
   11.7629   34.5731    5.3477   90.0000   90.0000   90.0000    18     1
