@<TRIPOS>MOLECULE
01
    16    16     1     0     0
SMALL
NO_CHARGES
****
Generated from the CSD

@<TRIPOS>ATOM
     1 S1       5.1611  23.4224   2.5590   S.o       1 RES1   0.0000
     2 O1       5.2251  23.6010   3.9787   O.2       1 RES1   0.0000
     3 O2       6.2515  23.8755   1.7519   O.2       1 RES1   0.0000
     4 O7       1.0945  23.7742   4.3439   O.2       1 RES1   0.0000
     5 O8       2.6761  22.4048   3.8231   O.2       1 RES1   0.0000
     6 N3       2.0571  23.4485   3.6552   N.pl3     1 RES1   0.0000
     7 C8       3.7333  24.3450   1.9952   C.ar      1 RES1   0.0000
     8 C9       2.4482  24.3505   2.5573   C.ar      1 RES1   0.0000
     9 C10      1.4727  25.2180   2.1011   C.ar      1 RES1   0.0000
    10 H13      0.6070  25.2072   2.4915   H         1 RES1   0.0000
    11 C11      1.7597  26.0989   1.0786   C.ar      1 RES1   0.0000
    12 H14      1.0928  26.7008   0.7674   H         1 RES1   0.0000
    13 C12      3.0125  26.1061   0.5102   C.ar      1 RES1   0.0000
    14 H15      3.2054  26.7008  -0.2043   H         1 RES1   0.0000
    15 C13      3.9876  25.2501   0.9754   C.ar      1 RES1   0.0000
    16 H16      4.8545  25.2799   0.5882   H         1 RES1   0.0000
@<TRIPOS>BOND
     1     1     2    2
     2     3     1    2
     3     4     6    2
     4     5     6    2
     5     6     8    1
     6     7     1    1
     7     8     7   ar
     8     9     8   ar
     9    10     9    1
    10    11     9   ar
    11    12    11    1
    12    13    11   ar
    13    14    13    1
    14    15     7   ar
    15    16    15    1
    16    13    15   ar
@<TRIPOS>SUBSTRUCTURE
     1 RES1        1 GROUP             0 ****  ****    0  
