@<TRIPOS>MOLECULE
02
    16    17     1     0     0
SMALL
NO_CHARGES
****
Generated from the CSD

@<TRIPOS>ATOM
     1 C31      7.6971   5.5653   9.9135   C.ar      1 RES2   0.0000
     2 C32      7.4278   5.4860  11.2398   C.ar      1 RES2   0.0000
     3 H31      8.0777   5.1735  11.8271   H         1 RES2   0.0000
     4 C33      6.1568   5.8810  11.7303   C.ar      1 RES2   0.0000
     5 H32      5.9840   5.8338  12.6438   H         1 RES2   0.0000
     6 C34      5.1983   6.3220  10.8958   C.ar      1 RES2   0.0000
     7 H33      4.3738   6.5798  11.2385   H         1 RES2   0.0000
     8 C35      5.4311   6.3960   9.5211   C.ar      1 RES2   0.0000
     9 C36      4.4787   6.8041   8.5948   C.ar      1 RES2   0.0000
    10 H34      3.6292   7.0480   8.8840   H         1 RES2   0.0000
    11 C37      4.7779   6.8481   7.2813   C.ar      1 RES2   0.0000
    12 H35      4.1418   7.1163   6.6582   H         1 RES2   0.0000
    13 C38      6.0638   6.4828   6.8787   C.ar      1 RES2   0.0000
    14 H36      6.2627   6.5234   5.9715   H         1 RES2   0.0000
    15 C39      6.7020   6.0281   9.0153   C.ar      1 RES2   0.0000
    16 N6       7.0146   6.0838   7.7017   N.ar      1 RES2   0.0000
@<TRIPOS>BOND
     1     1     2   ar
     2     2     3    1
     3     4     2   ar
     4     5     4    1
     5     6     4   ar
     6     7     6    1
     7     8     6   ar
     8     9     8   ar
     9    10     9    1
    10    11     9   ar
    11    12    11    1
    12    13    11   ar
    13    14    13    1
    14    15     1   ar
    15    16    13   ar
    16     8    15   ar
    17    15    16   ar
@<TRIPOS>SUBSTRUCTURE
     1 RES2        1 GROUP             0 ****  ****    0  
