@<TRIPOS>MOLECULE
01
    57    61     1     0     0
SMALL
NO_CHARGES
****
Generated from the CSD

@<TRIPOS>ATOM
     1 C1      11.9702   3.6959   2.1608   C.ar      1 RES1   0.0000
     2 H1      12.3196   4.5389   1.9786   H         1 RES1   0.0000
     3 C2      10.9177   3.2495   1.3938   C.ar      1 RES1   0.0000
     4 C3      10.4015   1.9574   1.6474   C.ar      1 RES1   0.0000
     5 C4      10.9634   1.1953   2.6679   C.ar      1 RES1   0.0000
     6 H2      10.6345   0.3455   2.8475   H         1 RES1   0.0000
     7 C5      12.0157   1.7044   3.4170   C.ar      1 RES1   0.0000
     8 C6      12.5455   2.9536   3.2004   C.ar      1 RES1   0.0000
     9 C7      13.6718   3.5241   4.0349   C.3       1 RES1   0.0000
    10 C8      14.0792   2.5395   5.1039   C.ar      1 RES1   0.0000
    11 C9      15.0957   2.8469   6.0136   C.ar      1 RES1   0.0000
    12 H3      15.5397   3.6582   5.9142   H         1 RES1   0.0000
    13 C10     15.4789   2.0246   7.0443   C.ar      1 RES1   0.0000
    14 C11     14.8124   0.7819   7.1819   C.ar      1 RES1   0.0000
    15 C12     13.8181   0.4466   6.2824   C.ar      1 RES1   0.0000
    16 H4      13.3816  -0.3707   6.3614   H         1 RES1   0.0000
    17 C13     13.4678   1.3163   5.2670   C.ar      1 RES1   0.0000
    18 C14     10.2857   4.1376   0.3402   C.3       1 RES1   0.0000
    19 H5      10.7525   4.9764   0.3070   H         1 RES1   0.0000
    20 H6       9.3649   4.2922   0.5631   H         1 RES1   0.0000
    21 H7      10.3407   3.7076  -0.5160   H         1 RES1   0.0000
    22 C15      8.7831   0.1557   1.1008   C.3       1 RES1   0.0000
    23 H8       8.5760   0.0026   2.0359   H         1 RES1   0.0000
    24 H9       9.4562  -0.4890   0.8320   H         1 RES1   0.0000
    25 C16      7.5354  -0.0449   0.2701   C.3       1 RES1   0.0000
    26 H10      6.8690   0.5938   0.5338   H         1 RES1   0.0000
    27 H11      7.1980  -0.9340   0.4064   H         1 RES1   0.0000
    28 H12      7.7462   0.0783  -0.6587   H         1 RES1   0.0000
    29 C17     16.5649   2.4271   8.0087   C.3       1 RES1   0.0000
    30 H13     16.9368   3.2712   7.7386   H         1 RES1   0.0000
    31 H14     17.2554   1.7604   8.0087   H         1 RES1   0.0000
    32 H15     16.1967   2.5073   8.8904   H         1 RES1   0.0000
    33 C18     14.5144  -1.2893   8.5502   C.3       1 RES1   0.0000
    34 H16     13.5658  -1.1994   8.3668   H         1 RES1   0.0000
    35 H17     14.6131  -1.4579   9.5007   H         1 RES1   0.0000
    36 C19     15.0149  -2.4409   7.8227   C.3       1 RES1   0.0000
    37 H18     14.7767  -2.3623   6.8965   H         1 RES1   0.0000
    38 H19     14.6307  -3.2414   8.1871   H         1 RES1   0.0000
    39 H20     15.9711  -2.4789   7.9055   H         1 RES1   0.0000
    40 C20     14.8309   3.9897   3.1775   C.ar      1 RES1   0.0000
    41 C21     15.7220   3.2348   2.4360   C.ar      1 RES1   0.0000
    42 H21     15.6678   2.3070   2.4207   H         1 RES1   0.0000
    43 C22     16.6952   3.9063   1.7213   C.ar      1 RES1   0.0000
    44 H22     17.3047   3.4166   1.2180   H         1 RES1   0.0000
    45 C23     16.7891   5.2773   1.7314   C.ar      1 RES1   0.0000
    46 H23     17.4545   5.6989   1.2371   H         1 RES1   0.0000
    47 C24     15.8915   6.0406   2.4768   C.ar      1 RES1   0.0000
    48 H24     15.9343   6.9698   2.4844   H         1 RES1   0.0000
    49 C25     14.9350   5.3535   3.2068   C.ar      1 RES1   0.0000
    50 C26     13.8839   5.9010   4.0974   C.2       1 RES1   0.0000
    51 N1       9.3082   1.4949   0.9390   N.pl3     1 RES1   0.0000
    52 N2      15.1677  -0.0306   8.2330   N.pl3     1 RES1   0.0000
    53 N3      13.2486   4.8270   4.6296   N.am      1 RES1   0.0000
    54 O1      13.6376   7.0831   4.3388   O.2       1 RES1   0.0000
    55 O3      12.4494   0.8686   4.4358   O.3       1 RES1   0.0000
    56 H39      9.1258   1.9765   0.2038   H         1 RES1   0.0000
    57 H40     15.9479   0.1250   8.6126   H         1 RES1   0.0000
@<TRIPOS>BOND
     1     1     2    1
     2     3     1   ar
     3     4     3   ar
     4     5     4   ar
     5     6     5    1
     6     7     5   ar
     7     8     1   ar
     8     9     8    1
     9    10     9    1
    10    11    10   ar
    11    12    11    1
    12    13    11   ar
    13    14    13   ar
    14    15    14   ar
    15    16    15    1
    16    17    10   ar
    17    18     3    1
    18    19    18    1
    19    20    18    1
    20    21    18    1
    21    22    23    1
    22    24    22    1
    23    25    22    1
    24    26    25    1
    25    27    25    1
    26    28    25    1
    27    29    13    1
    28    30    29    1
    29    31    29    1
    30    32    29    1
    31    33    34    1
    32    35    33    1
    33    36    33    1
    34    37    36    1
    35    38    36    1
    36    39    36    1
    37    40     9    1
    38    41    40   ar
    39    42    41    1
    40    43    41   ar
    41    44    43    1
    42    45    43   ar
    43    46    45    1
    44    47    45   ar
    45    48    47    1
    46    49    40   ar
    47    50    49    1
    48    51     4    1
    49    52    14    1
    50    53     9    1
    51    54    50    2
    52    55     7    1
    53    56    51    1
    54    57    52    1
    55     7     8   ar
    56    15    17   ar
    57    17    55    1
    58    22    51    1
    59    33    52    1
    60    47    49   ar
    61    50    53   am
@<TRIPOS>SUBSTRUCTURE
     1 RES1        1 GROUP             0 ****  ****    0  
