@<TRIPOS>MOLECULE
02
    15    16     1     0     0
SMALL
NO_CHARGES
****
Generated from the CSD

@<TRIPOS>ATOM
     1 C20      6.6962   3.3921   4.5058   C.2       1 RES2   0.0000
     2 C21      7.5136   2.4723   3.6803   C.ar      1 RES2   0.0000
     3 C22      8.6852   1.7998   3.9781   C.ar      1 RES2   0.0000
     4 H19      9.0842   1.8713   4.8151   H         1 RES2   0.0000
     5 C23      9.2436   1.0108   2.9744   C.ar      1 RES2   0.0000
     6 H20     10.0268   0.5387   3.1452   H         1 RES2   0.0000
     7 C24      8.6495   0.9191   1.7242   C.ar      1 RES2   0.0000
     8 H21      9.0487   0.3954   1.0676   H         1 RES2   0.0000
     9 C25      7.4724   1.5922   1.4330   C.ar      1 RES2   0.0000
    10 H22      7.0758   1.5290   0.5942   H         1 RES2   0.0000
    11 C26      6.9112   2.3586   2.4327   C.ar      1 RES2   0.0000
    12 C27      5.6695   3.1891   2.4465   C.2       1 RES2   0.0000
    13 N3       5.6071   3.7718   3.7065   N.am      1 RES2   0.0000
    14 O4       6.8878   3.7973   5.6256   O.2       1 RES2   0.0000
    15 O5       4.8621   3.3665   1.5669   O.2       1 RES2   0.0000
@<TRIPOS>BOND
     1     1     2    1
     2     2     3   ar
     3     3     4    1
     4     5     3   ar
     5     6     5    1
     6     7     5   ar
     7     8     7    1
     8     9     7   ar
     9    10     9    1
    10    11     2   ar
    11    12    11    1
    12    14     1    2
    13    15    12    2
    14     1    13   am
    15     9    11   ar
    16    12    13   am
@<TRIPOS>SUBSTRUCTURE
     1 RES2        1 GROUP             0 ****  ****    0  
