@<TRIPOS>MOLECULE
02
    15    16     1     0     0
SMALL
NO_CHARGES
****
Generated from the CSD

@<TRIPOS>ATOM
     1 C21     11.4583   7.6664   7.1879   C.2       1 RES2   0.0000
     2 C22     10.5219   8.8163   7.2192   C.ar      1 RES2   0.0000
     3 C23     10.2170   9.7063   8.2326   C.ar      1 RES2   0.0000
     4 H22     10.6630   9.6849   9.0487   H         1 RES2   0.0000
     5 C24      9.2157  10.6329   7.9792   C.ar      1 RES2   0.0000
     6 H23      8.9737  11.2345   8.6457   H         1 RES2   0.0000
     7 C25      8.5756  10.6804   6.7694   C.ar      1 RES2   0.0000
     8 H24      7.9055  11.3108   6.6342   H         1 RES2   0.0000
     9 C26      8.9030   9.8113   5.7417   C.ar      1 RES2   0.0000
    10 H25      8.4782   9.8561   4.9152   H         1 RES2   0.0000
    11 C27      9.8849   8.8788   5.9932   C.ar      1 RES2   0.0000
    12 C28     10.4384   7.8039   5.1277   C.2       1 RES2   0.0000
    13 N3      11.3471   7.1047   5.9111   N.am      1 RES2   0.0000
    14 O5      12.1806   7.2464   8.0569   O.2       1 RES2   0.0000
    15 O6      10.1861   7.5605   3.9742   O.2       1 RES2   0.0000
@<TRIPOS>BOND
     1     1     2    1
     2     2     3   ar
     3     3     4    1
     4     5     3   ar
     5     6     5    1
     6     7     5   ar
     7     8     7    1
     8     9     7   ar
     9    10     9    1
    10    11     2   ar
    11    12    11    1
    12    14     1    2
    13    15    12    2
    14     1    13   am
    15     9    11   ar
    16    12    13   am
@<TRIPOS>SUBSTRUCTURE
     1 RES2        1 GROUP             0 ****  ****    0  
