@<TRIPOS>MOLECULE
QEXXUQ
    58    61     1     0     0
SMALL
NO_CHARGES
****
Generated from the CSD

@<TRIPOS>ATOM
     1 C1       1.8608  10.1269   9.7021   C.ar      1 RES1   0.0000
     2 H1       1.5692  10.5689   8.9376   H         1 RES1   0.0000
     3 C2       2.2984  10.8433  10.8021   C.ar      1 RES1   0.0000
     4 C3       2.7405  10.2187  11.9500   C.ar      1 RES1   0.0000
     5 H2       3.0263  10.7174  12.6810   H         1 RES1   0.0000
     6 C4       2.7501   8.8417  11.9921   C.ar      1 RES1   0.0000
     7 H3       3.0519   8.4069  12.7567   H         1 RES1   0.0000
     8 C5       2.3145   8.0986  10.9080   C.ar      1 RES1   0.0000
     9 H4       2.3239   7.1696  10.9503   H         1 RES1   0.0000
    10 C6       1.8633   8.7352   9.7545   C.ar      1 RES1   0.0000
    11 C7       1.4085   7.9677   8.5575   C.ar      1 RES1   0.0000
    12 C8       2.2459   7.0332   7.9400   C.ar      1 RES1   0.0000
    13 C9       3.5557   6.7188   8.4471   C.1       1 RES1   0.0000
    14 C10      1.8045   6.3964   6.7639   C.ar      1 RES1   0.0000
    15 C11     -0.1931   7.5330   6.7876   C.ar      1 RES1   0.0000
    16 C12     -1.5273   7.7037   6.1128   C.3       1 RES1   0.0000
    17 H5      -1.5628   8.5630   5.6864   H         1 RES1   0.0000
    18 H6      -2.2271   7.6419   6.7671   H         1 RES1   0.0000
    19 H7      -1.6433   7.0147   5.4543   H         1 RES1   0.0000
    20 C13      0.1512   8.2044   7.9687   C.ar      1 RES1   0.0000
    21 C14     -0.8489   9.1222   8.6034   C.2       1 RES1   0.0000
    22 C15     -2.1812   9.4859  10.5418   C.3       1 RES1   0.0000
    23 H8      -2.6838   8.9104  11.1393   H         1 RES1   0.0000
    24 H9      -2.8040   9.8779   9.9092   H         1 RES1   0.0000
    25 C16     -1.5287  10.5723  11.3323   C.3       1 RES1   0.0000
    26 H10     -1.0462  11.1538  10.7400   H         1 RES1   0.0000
    27 H11     -0.9210  10.1858  11.9668   H         1 RES1   0.0000
    28 H12     -2.2000  11.0766  11.7985   H         1 RES1   0.0000
    29 C17      2.1918   4.8677   4.9821   C.3       1 RES1   0.0000
    30 H13      2.0305   5.5453   4.3072   H         1 RES1   0.0000
    31 H14      1.3705   4.3723   5.1247   H         1 RES1   0.0000
    32 C18      3.2944   3.9359   4.5347   C.3       1 RES1   0.0000
    33 H15      2.9833   3.4181   3.7756   H         1 RES1   0.0000
    34 H16      3.4980   3.3171   5.2532   H         1 RES1   0.0000
    35 C19      4.5540   4.6763   4.1463   C.3       1 RES1   0.0000
    36 H17      4.3505   5.2999   3.4319   H         1 RES1   0.0000
    37 H18      4.8708   5.1880   4.9072   H         1 RES1   0.0000
    38 C20      6.6962   3.3921   4.5058   C.2       1 RES1   0.0000
    39 C21      7.5136   2.4723   3.6803   C.ar      1 RES1   0.0000
    40 C22      8.6852   1.7998   3.9781   C.ar      1 RES1   0.0000
    41 H19      9.0842   1.8713   4.8151   H         1 RES1   0.0000
    42 C23      9.2436   1.0108   2.9744   C.ar      1 RES1   0.0000
    43 H20     10.0268   0.5387   3.1452   H         1 RES1   0.0000
    44 C24      8.6495   0.9191   1.7242   C.ar      1 RES1   0.0000
    45 H21      9.0487   0.3954   1.0676   H         1 RES1   0.0000
    46 C25      7.4724   1.5922   1.4330   C.ar      1 RES1   0.0000
    47 H22      7.0758   1.5290   0.5942   H         1 RES1   0.0000
    48 C26      6.9112   2.3586   2.4327   C.ar      1 RES1   0.0000
    49 C27      5.6695   3.1891   2.4465   C.2       1 RES1   0.0000
    50 Cl1      2.2665  12.5906  10.7207   Cl        1 RES1   0.0000
    51 N1       4.5861   6.4584   8.8380   N.1       1 RES1   0.0000
    52 N2       0.6385   6.6531   6.1931   N.ar      1 RES1   0.0000
    53 N3       5.6071   3.7718   3.7065   N.am      1 RES1   0.0000
    54 O1      -1.1945   8.6927   9.8213   O.3       1 RES1   0.0000
    55 O2      -1.3049  10.0975   8.0752   O.2       1 RES1   0.0000
    56 O3       2.6288   5.4870   6.2233   O.3       1 RES1   0.0000
    57 O4       6.8878   3.7973   5.6256   O.2       1 RES1   0.0000
    58 O5       4.8621   3.3665   1.5669   O.2       1 RES1   0.0000
@<TRIPOS>BOND
     1     1     2    1
     2     3     1   ar
     3     4     3   ar
     4     5     4    1
     5     6     4   ar
     6     7     6    1
     7     8     6   ar
     8     9     8    1
     9    10     1   ar
    10    11    10    1
    11    12    11   ar
    12    13    12    1
    13    14    12   ar
    14    15    16    1
    15    16    17    1
    16    18    16    1
    17    19    16    1
    18    20    11   ar
    19    21    20    1
    20    22    23    1
    21    24    22    1
    22    25    22    1
    23    26    25    1
    24    27    25    1
    25    28    25    1
    26    29    30    1
    27    31    29    1
    28    32    29    1
    29    33    32    1
    30    34    32    1
    31    35    32    1
    32    36    35    1
    33    37    35    1
    34    38    39    1
    35    39    40   ar
    36    40    41    1
    37    42    40   ar
    38    43    42    1
    39    44    42   ar
    40    45    44    1
    41    46    44   ar
    42    47    46    1
    43    48    39   ar
    44    49    48    1
    45    50     3    1
    46    51    13    3
    47    52    14   ar
    48    53    35    1
    49    54    21    1
    50    55    21    2
    51    56    14    1
    52    57    38    2
    53    58    49    2
    54     8    10   ar
    55    15    20   ar
    56    15    52   ar
    57    22    54    1
    58    29    56    1
    59    38    53   am
    60    46    48   ar
    61    49    53   am
@<TRIPOS>SUBSTRUCTURE
     1 RES1        1 GROUP             0 ****  ****    0  
@<TRIPOS>CRYSIN
    8.3340   12.1540   14.0310   64.3540   88.8560   80.7320     2     1
