@<TRIPOS>MOLECULE
01
    37    38     1     0     0
SMALL
NO_CHARGES
****
Generated from the CSD

@<TRIPOS>ATOM
     1 C1      15.6789  -1.7799   7.6262   C.ar      1 RES1   0.0000
     2 H1      14.9782  -2.2537   7.2394   H         1 RES1   0.0000
     3 C2      16.5114  -2.3632   8.6098   C.ar      1 RES1   0.0000
     4 H2      16.3706  -3.2399   8.8869   H         1 RES1   0.0000
     5 C3      17.5030  -1.6424   9.1350   C.ar      1 RES1   0.0000
     6 H3      18.0246  -2.0559   9.7833   H         1 RES1   0.0000
     7 C4      17.8230  -0.3608   8.8133   C.ar      1 RES1   0.0000
     8 H4      18.5370   0.0831   9.2110   H         1 RES1   0.0000
     9 C5      16.9975   0.2650   7.8269   C.ar      1 RES1   0.0000
    10 C6      18.1407   2.3224   8.0006   C.3       1 RES1   0.0000
    11 H5      18.1364   3.1901   7.5903   H         1 RES1   0.0000
    12 H6      19.0112   1.9293   7.9101   H         1 RES1   0.0000
    13 H7      17.9230   2.4080   8.9320   H         1 RES1   0.0000
    14 C7      15.9645  -0.4233   7.2523   C.ar      1 RES1   0.0000
    15 C8      15.0847   0.2067   6.2233   C.ar      1 RES1   0.0000
    16 C9      14.2921   1.3183   6.5217   C.ar      1 RES1   0.0000
    17 C10     14.2957   1.9016   7.8383   C.1       1 RES1   0.0000
    18 C11     13.4735   1.8491   5.5237   C.ar      1 RES1   0.0000
    19 C12     14.0924   0.2433   4.0199   C.ar      1 RES1   0.0000
    20 C13     13.9083  -0.2992   2.6403   C.3       1 RES1   0.0000
    21 H8      13.0343  -0.6894   2.5643   H         1 RES1   0.0000
    22 H9      14.5738  -0.9695   2.4690   H         1 RES1   0.0000
    23 H10     13.9981   0.4117   2.0020   H         1 RES1   0.0000
    24 C14     14.9709  -0.3317   4.9398   C.ar      1 RES1   0.0000
    25 C15     15.8718  -1.4508   4.5204   C.2       1 RES1   0.0000
    26 C16     15.9634  -3.7190   3.7690   C.3       1 RES1   0.0000
    27 H11     16.6435  -3.3967   3.1576   H         1 RES1   0.0000
    28 H12     15.3696  -4.3044   3.2741   H         1 RES1   0.0000
    29 C17     16.6075  -4.4832   4.8522   C.3       1 RES1   0.0000
    30 H13     17.0002  -5.2811   4.4898   H         1 RES1   0.0000
    31 H14     15.9504  -4.7209   5.5103   H         1 RES1   0.0000
    32 H15     17.2905  -3.9470   5.2600   H         1 RES1   0.0000
    33 N1      14.2781   2.3807   8.8617   N.1       1 RES1   0.0000
    34 N2      13.3575   1.3333   4.3214   N.ar      1 RES1   0.0000
    35 O1      17.1776   1.4933   7.3642   O.3       1 RES1   0.0000
    36 O2      17.0564  -1.3283   4.3923   O.2       1 RES1   0.0000
    37 O3      15.1981  -2.5791   4.2840   O.3       1 RES1   0.0000
@<TRIPOS>BOND
     1     1     2    1
     2     3     1   ar
     3     4     3    1
     4     5     3   ar
     5     6     5    1
     6     7     5   ar
     7     8     7    1
     8     9     7   ar
     9    10    11    1
    10    12    10    1
    11    13    10    1
    12    14     1   ar
    13    15    14    1
    14    16    15   ar
    15    17    16    1
    16    18    16   ar
    17    19    20    1
    18    20    21    1
    19    22    20    1
    20    23    20    1
    21    24    15   ar
    22    25    24    1
    23    26    27    1
    24    28    26    1
    25    29    26    1
    26    30    29    1
    27    31    29    1
    28    32    29    1
    29    33    17    3
    30    34    18   ar
    31    35     9    1
    32    36    25    2
    33    37    25    1
    34     9    14   ar
    35    10    35    1
    36    19    24   ar
    37    19    34   ar
    38    26    37    1
@<TRIPOS>SUBSTRUCTURE
     1 RES1        1 GROUP             0 ****  ****    0  
