@<TRIPOS>MOLECULE
01
    33    34     1     0     0
SMALL
NO_CHARGES
****
Generated from the CSD

@<TRIPOS>ATOM
     1 C1       1.8608  10.1269   9.7021   C.ar      1 RES1   0.0000
     2 H1       1.5692  10.5689   8.9376   H         1 RES1   0.0000
     3 C2       2.2984  10.8433  10.8021   C.ar      1 RES1   0.0000
     4 C3       2.7405  10.2187  11.9500   C.ar      1 RES1   0.0000
     5 H2       3.0263  10.7174  12.6810   H         1 RES1   0.0000
     6 C4       2.7501   8.8417  11.9921   C.ar      1 RES1   0.0000
     7 H3       3.0519   8.4069  12.7567   H         1 RES1   0.0000
     8 C5       2.3145   8.0986  10.9080   C.ar      1 RES1   0.0000
     9 H4       2.3239   7.1696  10.9503   H         1 RES1   0.0000
    10 C6       1.8633   8.7352   9.7545   C.ar      1 RES1   0.0000
    11 C7       1.4085   7.9677   8.5575   C.ar      1 RES1   0.0000
    12 C8       2.2459   7.0332   7.9400   C.ar      1 RES1   0.0000
    13 C9       3.5557   6.7188   8.4471   C.1       1 RES1   0.0000
    14 C10      1.8045   6.3964   6.7639   C.ar      1 RES1   0.0000
    15 C11     -0.1931   7.5330   6.7876   C.ar      1 RES1   0.0000
    16 C12     -1.5273   7.7037   6.1128   C.3       1 RES1   0.0000
    17 H5      -1.5628   8.5630   5.6864   H         1 RES1   0.0000
    18 H6      -2.2271   7.6419   6.7671   H         1 RES1   0.0000
    19 H7      -1.6433   7.0147   5.4543   H         1 RES1   0.0000
    20 C13      0.1512   8.2044   7.9687   C.ar      1 RES1   0.0000
    21 C14     -0.8489   9.1222   8.6034   C.2       1 RES1   0.0000
    22 C15     -2.1812   9.4859  10.5418   C.3       1 RES1   0.0000
    23 H8      -2.6838   8.9104  11.1393   H         1 RES1   0.0000
    24 H9      -2.8040   9.8779   9.9092   H         1 RES1   0.0000
    25 C16     -1.5287  10.5723  11.3323   C.3       1 RES1   0.0000
    26 H10     -1.0462  11.1538  10.7400   H         1 RES1   0.0000
    27 H11     -0.9210  10.1858  11.9668   H         1 RES1   0.0000
    28 H12     -2.2000  11.0766  11.7985   H         1 RES1   0.0000
    29 Cl1      2.2665  12.5906  10.7207   Cl        1 RES1   0.0000
    30 N1       4.5861   6.4584   8.8380   N.1       1 RES1   0.0000
    31 N2       0.6385   6.6531   6.1931   N.ar      1 RES1   0.0000
    32 O1      -1.1945   8.6927   9.8213   O.3       1 RES1   0.0000
    33 O2      -1.3049  10.0975   8.0752   O.2       1 RES1   0.0000
@<TRIPOS>BOND
     1     1     2    1
     2     3     1   ar
     3     4     3   ar
     4     5     4    1
     5     6     4   ar
     6     7     6    1
     7     8     6   ar
     8     9     8    1
     9    10     1   ar
    10    11    10    1
    11    12    11   ar
    12    13    12    1
    13    14    12   ar
    14    15    16    1
    15    16    17    1
    16    18    16    1
    17    19    16    1
    18    20    11   ar
    19    21    20    1
    20    22    23    1
    21    24    22    1
    22    25    22    1
    23    26    25    1
    24    27    25    1
    25    28    25    1
    26    29     3    1
    27    30    13    3
    28    31    14   ar
    29    32    21    1
    30    33    21    2
    31     8    10   ar
    32    15    20   ar
    33    15    31   ar
    34    22    32    1
@<TRIPOS>SUBSTRUCTURE
     1 RES1        1 GROUP             0 ****  ****    0  
