@<TRIPOS>MOLECULE
02
    39    39     1     0     0
SMALL
NO_CHARGES
****
Generated from the CSD

@<TRIPOS>ATOM
     1 C19      4.6198   4.9923   6.9517   C.3       1 RES2   0.0000
     2 C21      4.4941   4.3296   8.3472   C.3       1 RES2   0.0000
     3 H35      3.6012   3.9580   8.4379   H         1 RES2   0.0000
     4 H36      5.1267   3.5950   8.4032   H         1 RES2   0.0000
     5 C22      4.7451   5.2737   9.4947   C.2       1 RES2   0.0000
     6 O5       3.9079   6.0881   9.8724   O.2       1 RES2   0.0000
     7 C23      4.2288   3.9349   5.9031   C.3       1 RES2   0.0000
     8 H37      4.7077   3.1126   6.0958   H         1 RES2   0.0000
     9 H38      3.2808   3.7485   5.9857   H         1 RES2   0.0000
    10 C24      4.5228   4.3466   4.4709   C.3       1 RES2   0.0000
    11 H39      3.9167   5.0617   4.2170   H         1 RES2   0.0000
    12 H40      4.3540   3.5938   3.8849   H         1 RES2   0.0000
    13 C25      5.9546   4.8181   4.2705   C.3       1 RES2   0.0000
    14 H41      6.5598   4.0701   4.3869   H         1 RES2   0.0000
    15 H42      6.0601   5.1543   3.3674   H         1 RES2   0.0000
    16 C26      6.3063   5.9121   5.2595   C.3       1 RES2   0.0000
    17 H43      5.7658   6.6966   5.0782   H         1 RES2   0.0000
    18 H44      7.2385   6.1582   5.1516   H         1 RES2   0.0000
    19 C27      6.0664   5.4467   6.6984   C.3       1 RES2   0.0000
    20 H45      6.2792   6.1740   7.3045   H         1 RES2   0.0000
    21 H46      6.6678   4.7121   6.8971   H         1 RES2   0.0000
    22 N4       5.9700   5.2152  10.0471   N.am      1 RES2   0.0000
    23 H47      6.3880   4.5318   9.8726   H         1 RES2   0.0000
    24 C28      6.3808   6.0741  11.1498   C.3       1 RES2   0.0000
    25 C29      6.0462   7.5348  10.8529   C.2       1 RES2   0.0000
    26 O6       5.6960   8.3083  11.6970   O.2       1 RES2   0.0000
    27 C30      5.6922   5.6368  12.4362   C.3       1 RES2   0.0000
    28 H48      4.7406   5.7232  12.3364   H         1 RES2   0.0000
    29 H49      5.9893   6.1910  13.1628   H         1 RES2   0.0000
    30 H50      5.9110   4.7219  12.6221   H         1 RES2   0.0000
    31 C31      7.8921   5.9705  11.2763   C.3       1 RES2   0.0000
    32 H51      8.1340   5.0617  11.4675   H         1 RES2   0.0000
    33 H52      8.1920   6.5382  11.9888   H         1 RES2   0.0000
    34 H53      8.3019   6.2459  10.4538   H         1 RES2   0.0000
    35 O7       6.2743   7.8683   9.5895   O.3       1 RES2   0.0000
    36 C32      6.0440   9.2561   9.2354   C.3       1 RES2   0.0000
    37 H54      6.2331   9.3852   8.3047   H         1 RES2   0.0000
    38 H55      6.6193   9.8189   9.7606   H         1 RES2   0.0000
    39 H56      5.1260   9.4827   9.4111   H         1 RES2   0.0000
@<TRIPOS>BOND
     1     2     1    1
     2     3     2    1
     3     4     2    1
     4     5     2    1
     5     6     5    2
     6     7     1    1
     7     8     7    1
     8     9     7    1
     9    10     7    1
    10    11    10    1
    11    12    10    1
    12    13    10    1
    13    14    13    1
    14    15    13    1
    15    16    13    1
    16    17    16    1
    17    18    16    1
    18    19     1    1
    19    20    19    1
    20    21    19    1
    21    22     5   am
    22    23    22    1
    23    24    22    1
    24    25    24    1
    25    26    25    2
    26    27    24    1
    27    28    27    1
    28    29    27    1
    29    30    27    1
    30    31    24    1
    31    32    31    1
    32    33    31    1
    33    34    31    1
    34    35    25    1
    35    36    35    1
    36    37    36    1
    37    38    36    1
    38    39    36    1
    39    16    19    1
@<TRIPOS>SUBSTRUCTURE
     1 RES2        1 GROUP             0 ****  ****    0  
