@<TRIPOS>MOLECULE
01
    37    37     1     0     0
SMALL
NO_CHARGES
****
Generated from the CSD

@<TRIPOS>ATOM
     1 C1      -2.7535  10.5109  13.3230   C.3       1 RES1   0.0000
     2 H1      -3.6256  10.1527  13.4987   H         1 RES1   0.0000
     3 H2      -2.8109  11.4660  13.2381   H         1 RES1   0.0000
     4 H3      -2.1633  10.2904  14.0490   H         1 RES1   0.0000
     5 C2      -0.8537  10.4378  11.7243   C.3       1 RES1   0.0000
     6 H4      -0.2744  10.2928  12.4754   H         1 RES1   0.0000
     7 H5      -0.9031  11.3770  11.5331   H         1 RES1   0.0000
     8 H6      -0.5069   9.9736  10.9577   H         1 RES1   0.0000
     9 C3      -3.1700  10.1454  10.9268   C.3       1 RES1   0.0000
    10 H7      -4.0356   9.8092  11.1740   H         1 RES1   0.0000
    11 H8      -2.8593   9.6837  10.1448   H         1 RES1   0.0000
    12 H9      -3.2329  11.0847  10.7415   H         1 RES1   0.0000
    13 C4      -2.2165   9.9249  12.0436   C.3       1 RES1   0.0000
    14 O1      -2.1512   8.5035  12.3974   O.3       1 RES1   0.0000
    15 C5      -1.8666   7.5360  11.5140   C.2       1 RES1   0.0000
    16 O2      -1.5363   7.7051  10.3595   O.2       1 RES1   0.0000
    17 N1      -1.9832   6.3512  12.1272   N.am      1 RES1   0.0000
    18 H10     -2.1617   6.3348  12.9871   H         1 RES1   0.0000
    19 C6      -2.0169   5.0873  11.4165   C.3       1 RES1   0.0000
    20 H11     -2.0585   5.2688  10.4653   H         1 RES1   0.0000
    21 H12     -2.8303   4.6171  11.6606   H         1 RES1   0.0000
    22 C7      -0.8193   4.1627  11.6843   C.3       1 RES1   0.0000
    23 C10     -0.5639   4.0311  13.1942   C.3       1 RES1   0.0000
    24 H15      0.2532   3.5256  13.3288   H         1 RES1   0.0000
    25 H16     -0.4236   4.9180  13.5644   H         1 RES1   0.0000
    26 C11     -1.6825   3.3587  13.9560   C.3       1 RES1   0.0000
    27 H17     -2.4844   3.9020  13.9023   H         1 RES1   0.0000
    28 H18     -1.4365   3.2758  14.8909   H         1 RES1   0.0000
    29 C12     -1.9607   1.9808  13.3771   C.3       1 RES1   0.0000
    30 H19     -2.7167   1.5849  13.8366   H         1 RES1   0.0000
    31 H20     -1.1888   1.4095  13.5200   H         1 RES1   0.0000
    32 C13     -2.2598   2.0649  11.8874   C.3       1 RES1   0.0000
    33 H21     -3.0946   2.5437  11.7552   H         1 RES1   0.0000
    34 H22     -2.3714   1.1695  11.5331   H         1 RES1   0.0000
    35 C14     -1.1462   2.7751  11.1220   C.3       1 RES1   0.0000
    36 H23     -1.4108   2.8653  10.1931   H         1 RES1   0.0000
    37 H24     -0.3462   2.2269  11.1508   H         1 RES1   0.0000
@<TRIPOS>BOND
     1     1     2    1
     2     3     1    1
     3     4     1    1
     4     5     6    1
     5     7     5    1
     6     8     5    1
     7     9    10    1
     8    11     9    1
     9    12     9    1
    10    13     1    1
    11    14    13    1
    12    15    14    1
    13    16    15    2
    14    17    15   am
    15    18    17    1
    16    19    17    1
    17    20    19    1
    18    21    19    1
    19    22    19    1
    20    23    22    1
    21    24    23    1
    22    25    23    1
    23    26    23    1
    24    27    26    1
    25    28    26    1
    26    29    26    1
    27    30    29    1
    28    31    29    1
    29    32    29    1
    30    33    32    1
    31    34    32    1
    32    35    22    1
    33    36    35    1
    34    37    35    1
    35     5    13    1
    36     9    13    1
    37    32    35    1
@<TRIPOS>SUBSTRUCTURE
     1 RES1        1 GROUP             0 ****  ****    0  
