@<TRIPOS>MOLECULE
QEZWOI
    99   100     1     0     0
SMALL
NO_CHARGES
****
Generated from the CSD

@<TRIPOS>ATOM
     1 C1      -2.7535  10.5109  13.3230   C.3       1 RES1   0.0000
     2 H1      -3.6256  10.1527  13.4987   H         1 RES1   0.0000
     3 H2      -2.8109  11.4660  13.2381   H         1 RES1   0.0000
     4 H3      -2.1633  10.2904  14.0490   H         1 RES1   0.0000
     5 C2      -0.8537  10.4378  11.7243   C.3       1 RES1   0.0000
     6 H4      -0.2744  10.2928  12.4754   H         1 RES1   0.0000
     7 H5      -0.9031  11.3770  11.5331   H         1 RES1   0.0000
     8 H6      -0.5069   9.9736  10.9577   H         1 RES1   0.0000
     9 C3      -3.1700  10.1454  10.9268   C.3       1 RES1   0.0000
    10 H7      -4.0356   9.8092  11.1740   H         1 RES1   0.0000
    11 H8      -2.8593   9.6837  10.1448   H         1 RES1   0.0000
    12 H9      -3.2329  11.0847  10.7415   H         1 RES1   0.0000
    13 C4      -2.2165   9.9249  12.0436   C.3       1 RES1   0.0000
    14 O1      -2.1512   8.5035  12.3974   O.3       1 RES1   0.0000
    15 C5      -1.8666   7.5360  11.5140   C.2       1 RES1   0.0000
    16 O2      -1.5363   7.7051  10.3595   O.2       1 RES1   0.0000
    17 N1      -1.9832   6.3512  12.1272   N.am      1 RES1   0.0000
    18 H10     -2.1617   6.3348  12.9871   H         1 RES1   0.0000
    19 C6      -2.0169   5.0873  11.4165   C.3       1 RES1   0.0000
    20 H11     -2.0585   5.2688  10.4653   H         1 RES1   0.0000
    21 H12     -2.8303   4.6171  11.6606   H         1 RES1   0.0000
    22 C7      -0.8193   4.1627  11.6843   C.3       1 RES1   0.0000
    23 C8       0.4606   4.7487  11.0454   C.3       1 RES1   0.0000
    24 H13      0.5208   5.6879  11.2821   H         1 RES1   0.0000
    25 H14      1.2279   4.3016  11.4327   H         1 RES1   0.0000
    26 C9       0.5424   4.6281   9.5329   C.2       1 RES1   0.0000
    27 O3       1.0154   3.6356   8.9913   O.2       1 RES1   0.0000
    28 C10     -0.5639   4.0311  13.1942   C.3       1 RES1   0.0000
    29 H15      0.2532   3.5256  13.3288   H         1 RES1   0.0000
    30 H16     -0.4236   4.9180  13.5644   H         1 RES1   0.0000
    31 C11     -1.6825   3.3587  13.9560   C.3       1 RES1   0.0000
    32 H17     -2.4844   3.9020  13.9023   H         1 RES1   0.0000
    33 H18     -1.4365   3.2758  14.8909   H         1 RES1   0.0000
    34 C12     -1.9607   1.9808  13.3771   C.3       1 RES1   0.0000
    35 H19     -2.7167   1.5849  13.8366   H         1 RES1   0.0000
    36 H20     -1.1888   1.4095  13.5200   H         1 RES1   0.0000
    37 C13     -2.2598   2.0649  11.8874   C.3       1 RES1   0.0000
    38 H21     -3.0946   2.5437  11.7552   H         1 RES1   0.0000
    39 H22     -2.3714   1.1695  11.5331   H         1 RES1   0.0000
    40 C14     -1.1462   2.7751  11.1220   C.3       1 RES1   0.0000
    41 H23     -1.4108   2.8653  10.1931   H         1 RES1   0.0000
    42 H24     -0.3462   2.2269  11.1508   H         1 RES1   0.0000
    43 N2       0.0822   5.6867   8.8502   N.am      1 RES1   0.0000
    44 H25     -0.1391   6.3835   9.3203   H         1 RES1   0.0000
    45 C15     -0.0615   5.7720   7.3825   C.3       1 RES1   0.0000
    46 C16      1.2907   5.8097   6.6577   C.2       1 RES1   0.0000
    47 O4       1.3160   5.6964   5.4395   O.2       1 RES1   0.0000
    48 C17     -0.7202   7.1340   7.0875   C.3       1 RES1   0.0000
    49 H26     -1.5780   7.1754   7.5169   H         1 RES1   0.0000
    50 H27     -0.8328   7.2375   6.1402   H         1 RES1   0.0000
    51 H28     -0.1607   7.8393   7.4223   H         1 RES1   0.0000
    52 C18     -0.9039   4.6244   6.8422   C.3       1 RES1   0.0000
    53 H29     -1.7503   4.6061   7.2968   H         1 RES1   0.0000
    54 H30     -0.4443   3.7948   6.9878   H         1 RES1   0.0000
    55 H31     -1.0494   4.7499   5.9008   H         1 RES1   0.0000
    56 N3       2.3740   6.0400   7.3962   N.am      1 RES1   0.0000
    57 H32      2.2762   6.0790   8.3028   H         1 RES1   0.0000
    58 C19      4.6198   4.9923   6.9517   C.3       1 RES1   0.0000
    59 C20      3.7128   6.2276   6.8602   C.3       1 RES1   0.0000
    60 H33      4.1359   6.9585   7.3373   H         1 RES1   0.0000
    61 H34      3.6397   6.4895   5.9297   H         1 RES1   0.0000
    62 C21      4.4941   4.3296   8.3472   C.3       1 RES1   0.0000
    63 H35      3.6012   3.9580   8.4379   H         1 RES1   0.0000
    64 H36      5.1267   3.5950   8.4032   H         1 RES1   0.0000
    65 C22      4.7451   5.2737   9.4947   C.2       1 RES1   0.0000
    66 O5       3.9079   6.0881   9.8724   O.2       1 RES1   0.0000
    67 C23      4.2288   3.9349   5.9031   C.3       1 RES1   0.0000
    68 H37      4.7077   3.1126   6.0958   H         1 RES1   0.0000
    69 H38      3.2808   3.7485   5.9857   H         1 RES1   0.0000
    70 C24      4.5228   4.3466   4.4709   C.3       1 RES1   0.0000
    71 H39      3.9167   5.0617   4.2170   H         1 RES1   0.0000
    72 H40      4.3540   3.5938   3.8849   H         1 RES1   0.0000
    73 C25      5.9546   4.8181   4.2705   C.3       1 RES1   0.0000
    74 H41      6.5598   4.0701   4.3869   H         1 RES1   0.0000
    75 H42      6.0601   5.1543   3.3674   H         1 RES1   0.0000
    76 C26      6.3063   5.9121   5.2595   C.3       1 RES1   0.0000
    77 H43      5.7658   6.6966   5.0782   H         1 RES1   0.0000
    78 H44      7.2385   6.1582   5.1516   H         1 RES1   0.0000
    79 C27      6.0664   5.4467   6.6984   C.3       1 RES1   0.0000
    80 H45      6.2792   6.1740   7.3045   H         1 RES1   0.0000
    81 H46      6.6678   4.7121   6.8971   H         1 RES1   0.0000
    82 N4       5.9700   5.2152  10.0471   N.am      1 RES1   0.0000
    83 H47      6.3880   4.5318   9.8726   H         1 RES1   0.0000
    84 C28      6.3808   6.0741  11.1498   C.3       1 RES1   0.0000
    85 C29      6.0462   7.5348  10.8529   C.2       1 RES1   0.0000
    86 O6       5.6960   8.3083  11.6970   O.2       1 RES1   0.0000
    87 C30      5.6922   5.6368  12.4362   C.3       1 RES1   0.0000
    88 H48      4.7406   5.7232  12.3364   H         1 RES1   0.0000
    89 H49      5.9893   6.1910  13.1628   H         1 RES1   0.0000
    90 H50      5.9110   4.7219  12.6221   H         1 RES1   0.0000
    91 C31      7.8921   5.9705  11.2763   C.3       1 RES1   0.0000
    92 H51      8.1340   5.0617  11.4675   H         1 RES1   0.0000
    93 H52      8.1920   6.5382  11.9888   H         1 RES1   0.0000
    94 H53      8.3019   6.2459  10.4538   H         1 RES1   0.0000
    95 O7       6.2743   7.8683   9.5895   O.3       1 RES1   0.0000
    96 C32      6.0440   9.2561   9.2354   C.3       1 RES1   0.0000
    97 H54      6.2331   9.3852   8.3047   H         1 RES1   0.0000
    98 H55      6.6193   9.8189   9.7606   H         1 RES1   0.0000
    99 H56      5.1260   9.4827   9.4111   H         1 RES1   0.0000
@<TRIPOS>BOND
     1     1     2    1
     2     3     1    1
     3     4     1    1
     4     5     6    1
     5     7     5    1
     6     8     5    1
     7     9    10    1
     8    11     9    1
     9    12     9    1
    10    13     1    1
    11    14    13    1
    12    15    14    1
    13    16    15    2
    14    17    15   am
    15    18    17    1
    16    19    17    1
    17    20    19    1
    18    21    19    1
    19    22    19    1
    20    23    22    1
    21    24    23    1
    22    25    23    1
    23    26    23    1
    24    27    26    2
    25    28    22    1
    26    29    28    1
    27    30    28    1
    28    31    28    1
    29    32    31    1
    30    33    31    1
    31    34    31    1
    32    35    34    1
    33    36    34    1
    34    37    34    1
    35    38    37    1
    36    39    37    1
    37    40    22    1
    38    41    40    1
    39    42    40    1
    40    43    26   am
    41    44    43    1
    42    45    43    1
    43    46    45    1
    44    47    46    2
    45    48    45    1
    46    49    48    1
    47    50    48    1
    48    51    48    1
    49    52    45    1
    50    53    52    1
    51    54    52    1
    52    55    52    1
    53    56    46   am
    54    57    56    1
    55    58    59    1
    56    59    56    1
    57    60    59    1
    58    61    59    1
    59    62    58    1
    60    63    62    1
    61    64    62    1
    62    65    62    1
    63    66    65    2
    64    67    58    1
    65    68    67    1
    66    69    67    1
    67    70    67    1
    68    71    70    1
    69    72    70    1
    70    73    70    1
    71    74    73    1
    72    75    73    1
    73    76    73    1
    74    77    76    1
    75    78    76    1
    76    79    58    1
    77    80    79    1
    78    81    79    1
    79    82    65   am
    80    83    82    1
    81    84    82    1
    82    85    84    1
    83    86    85    2
    84    87    84    1
    85    88    87    1
    86    89    87    1
    87    90    87    1
    88    91    84    1
    89    92    91    1
    90    93    91    1
    91    94    91    1
    92    95    85    1
    93    96    95    1
    94    97    96    1
    95    98    96    1
    96    99    96    1
    97     5    13    1
    98     9    13    1
    99    37    40    1
   100    76    79    1
@<TRIPOS>SUBSTRUCTURE
     1 RES1        1 GROUP             0 ****  ****    0  
@<TRIPOS>CRYSIN
   30.0270   12.1823   20.4530   90.0000  109.2560   90.0000    15     1
