@<TRIPOS>MOLECULE
01
    15    16     1     0     0
SMALL
NO_CHARGES
****
Generated from the CSD

@<TRIPOS>ATOM
     1 C1       4.0709   7.8985   8.1757   C.ar      1 RES1   0.0000
     2 C2       5.0531   8.7231   7.6631   C.ar      1 RES1   0.0000
     3 H1       5.8281   8.3703   7.2880   H         1 RES1   0.0000
     4 C3       4.8496  10.0656   7.7239   C.ar      1 RES1   0.0000
     5 H2       5.5016  10.6424   7.3966   H         1 RES1   0.0000
     6 C4       3.6844  10.5920   8.2683   C.ar      1 RES1   0.0000
     7 H3       3.5691  11.5146   8.2886   H         1 RES1   0.0000
     8 C5       2.6957   9.7787   8.7766   C.ar      1 RES1   0.0000
     9 H4       1.9204  10.1468   9.1372   H         1 RES1   0.0000
    10 C6       2.8757   8.3955   8.7433   C.ar      1 RES1   0.0000
    11 C7       2.1025   7.2671   9.1647   C.2       1 RES1   0.0000
    12 C8       2.8226   6.1850   8.8447   C.2       1 RES1   0.0000
    13 H5       2.5503   5.3086   8.9982   H         1 RES1   0.0000
    14 N1       4.0162   6.5364   8.2582   N.pl3     1 RES1   0.0000
    15 H28      4.6239   5.9904   7.9903   H         1 RES1   0.0000
@<TRIPOS>BOND
     1     1     2   ar
     2     2     3    1
     3     4     2   ar
     4     5     4    1
     5     6     4   ar
     6     7     6    1
     7     8     6   ar
     8     9     8    1
     9    10     1   ar
    10    11    10    1
    11    12    11    2
    12    13    12    1
    13    14     1    1
    14    15    14    1
    15     8    10   ar
    16    12    14    1
@<TRIPOS>SUBSTRUCTURE
     1 RES1        1 GROUP             0 ****  ****    0  
