@<TRIPOS>MOLECULE
02
    34    36     1     0     0
SMALL
NO_CHARGES
****
Generated from the CSD

@<TRIPOS>ATOM
     1 C15      6.0303   7.9853  13.6493   C.ar      1 RES2   0.0000
     2 C16      6.7479   6.8052  13.5218   C.ar      1 RES2   0.0000
     3 H14      7.1446   6.4132  14.2661   H         1 RES2   0.0000
     4 C17      6.8671   6.2172  12.2838   C.ar      1 RES2   0.0000
     5 H15      7.3534   5.4304  12.1896   H         1 RES2   0.0000
     6 C18      6.2690   6.7912  11.1789   C.ar      1 RES2   0.0000
     7 H16      6.3300   6.3824  10.3463   H         1 RES2   0.0000
     8 C19      5.5797   7.9769  11.3266   C.ar      1 RES2   0.0000
     9 H17      5.1927   8.3745  10.5794   H         1 RES2   0.0000
    10 C20      5.4491   8.5929  12.5661   C.ar      1 RES2   0.0000
    11 C21      4.7471   9.9326  12.6574   C.3       1 RES2   0.0000
    12 H18      5.1941  10.5290  12.0202   H         1 RES2   0.0000
    13 C22      4.9272  10.5556  14.0518   C.3       1 RES2   0.0000
    14 H19      4.1582  11.1380  14.2241   H         1 RES2   0.0000
    15 C23      4.9832   9.5071  15.1509   C.3       1 RES2   0.0000
    16 H20      4.1152   9.0507  15.1668   H         1 RES2   0.0000
    17 C24      5.1988  10.1076  16.5092   C.ar      1 RES2   0.0000
    18 C25      6.4559  10.2210  17.0739   C.ar      1 RES2   0.0000
    19 H21      7.1958   9.8738  16.6294   H         1 RES2   0.0000
    20 C26      6.6186  10.8454  18.2888   C.ar      1 RES2   0.0000
    21 H22      7.4694  10.8930  18.6610   H         1 RES2   0.0000
    22 C27      5.5591  11.3998  18.9723   C.ar      1 RES2   0.0000
    23 C28      5.7420  12.0914  20.2958   C.3       1 RES2   0.0000
    24 H23      6.6729  12.2888  20.4261   H         1 RES2   0.0000
    25 H24      5.4350  11.5188  21.0010   H         1 RES2   0.0000
    26 H25      5.2366  12.9075  20.3030   H         1 RES2   0.0000
    27 C29      4.3113  11.2906  18.3945   C.ar      1 RES2   0.0000
    28 H26      3.5758  11.6602  18.8275   H         1 RES2   0.0000
    29 C30      4.1318  10.6494  17.1941   C.ar      1 RES2   0.0000
    30 H27      3.2751  10.5794  16.8379   H         1 RES2   0.0000
    31 N3       6.1643  11.3984  14.0938   N.pl3     1 RES2   0.0000
    32 O3       7.2172  10.9042  13.7535   O.2       1 RES2   0.0000
    33 O4       6.0559  12.5478  14.4718   O.2       1 RES2   0.0000
    34 O5       5.9857   8.5167  14.9140   O.3       1 RES2   0.0000
@<TRIPOS>BOND
     1     1     2   ar
     2     2     3    1
     3     4     2   ar
     4     5     4    1
     5     6     4   ar
     6     7     6    1
     7     8     6   ar
     8     9     8    1
     9    10     1   ar
    10    12    11    1
    11    13    11    1
    12    14    13    1
    13    15    13    1
    14    16    15    1
    15    17    15    1
    16    18    17   ar
    17    19    18    1
    18    20    18   ar
    19    21    20    1
    20    22    20   ar
    21    23    22    1
    22    24    23    1
    23    25    23    1
    24    26    23    1
    25    27    22   ar
    26    28    27    1
    27    29    17   ar
    28    30    29    1
    29    31    13    1
    30    32    31    2
    31    33    31    2
    32    34     1    1
    33     8    10   ar
    34    10    11    1
    35    15    34    1
    36    27    29   ar
@<TRIPOS>SUBSTRUCTURE
     1 RES2        1 GROUP             0 ****  ****    0  
