@<TRIPOS>MOLECULE
RAFROG
    65    68     1     0     0
SMALL
NO_CHARGES
****
Generated from the CSD

@<TRIPOS>ATOM
     1 C1       5.0107   9.7003   6.7728   C.ar      1 RES1   0.0000
     2 C2       5.1190  10.5083   5.6587   C.ar      1 RES1   0.0000
     3 H1       4.7460  10.2228   4.8334   H         1 RES1   0.0000
     4 C3       5.7701  11.7412   5.7304   C.ar      1 RES1   0.0000
     5 H2       5.8168  12.2941   4.9587   H         1 RES1   0.0000
     6 C4       6.3400  12.1591   6.8961   C.ar      1 RES1   0.0000
     7 H3       6.7853  12.9975   6.9233   H         1 RES1   0.0000
     8 C5       6.2786  11.3596   8.0708   C.ar      1 RES1   0.0000
     9 C6       6.8797  11.7996   9.2981   C.ar      1 RES1   0.0000
    10 C7       6.7897  11.0027  10.3991   C.ar      1 RES1   0.0000
    11 H4       7.1711  11.2961  11.2183   H         1 RES1   0.0000
    12 C8       6.1460   9.7530  10.3496   C.ar      1 RES1   0.0000
    13 H5       6.1131   9.2131  11.1305   H         1 RES1   0.0000
    14 C9       5.5696   9.3078   9.2021   C.ar      1 RES1   0.0000
    15 H6       5.1404   8.4591   9.1880   H         1 RES1   0.0000
    16 C10      5.6041  10.0995   8.0244   C.ar      1 RES1   0.0000
    17 C11      7.5809  13.1285   9.3708   C.3       1 RES1   0.0000
    18 H7       7.8839  13.2882  10.2890   H         1 RES1   0.0000
    19 H8       6.9630  13.8397   9.1021   H         1 RES1   0.0000
    20 H9       8.3547  13.1234   8.7688   H         1 RES1   0.0000
    21 C12      4.2227   8.4500   6.6657   C.2       1 RES1   0.0000
    22 O1       3.6937   7.8430   7.5645   O.2       1 RES1   0.0000
    23 O2       4.1223   8.0122   5.3744   O.3       1 RES1   0.0000
    24 C13      3.2903   6.8446   5.1970   C.3       1 RES1   0.0000
    25 H10      2.4197   7.0081   5.6587   H         1 RES1   0.0000
    26 C14      3.9215   5.5922   5.8031   C.2       1 RES1   0.0000
    27 O3       3.2254   4.7681   6.3866   O.2       1 RES1   0.0000
    28 N1       5.2451   5.4626   5.6233   N.am      1 RES1   0.0000
    29 H11      5.6877   6.1087   5.0304   H         1 RES1   0.0000
    30 C15      5.9890   4.3347   6.0849   C.2       1 RES1   0.0000
    31 C16      6.6897   4.4709   7.2526   C.2       1 RES1   0.0000
    32 N2       7.4652   3.5336   7.8153   N.pl3     1 RES1   0.0000
    33 H12      7.7619   2.7526   7.3031   H         1 RES1   0.0000
    34 C17      8.2362   4.0024   8.9728   C.3       1 RES1   0.0000
    35 H13      8.1530   3.3418   9.7203   H         1 RES1   0.0000
    36 C18      7.5141   5.3028   9.3537   C.3       1 RES1   0.0000
    37 H14      8.1641   6.0010   9.6183   H         1 RES1   0.0000
    38 H15      6.8857   5.1497  10.1042   H         1 RES1   0.0000
    39 C19      6.7547   5.7181   8.0850   C.3       1 RES1   0.0000
    40 H16      5.8455   6.0400   8.3082   H         1 RES1   0.0000
    41 H17      7.2390   6.4358   7.6052   H         1 RES1   0.0000
    42 C20      9.6922   4.1919   8.6233   C.3       1 RES1   0.0000
    43 H18     10.2032   4.4359   9.4355   H         1 RES1   0.0000
    44 H19     10.0644   3.3470   8.2637   H         1 RES1   0.0000
    45 O4       9.8117   5.2216   7.6523   O.3       1 RES1   0.0000
    46 H20     10.6972   5.2172   7.2324   H         1 RES1   0.0000
    47 C21      6.0719   3.1459   5.2900   C.2       1 RES1   0.0000
    48 O5       6.7032   2.1354   5.5894   O.2       1 RES1   0.0000
    49 O6       5.3988   3.2398   4.1125   O.3       1 RES1   0.0000
    50 C22      5.5902   2.1479   3.1829   C.3       1 RES1   0.0000
    51 H21      5.1658   1.3251   3.5324   H         1 RES1   0.0000
    52 H22      6.5576   1.9727   3.0596   H         1 RES1   0.0000
    53 C23      4.9696   2.5307   1.8788   C.3       1 RES1   0.0000
    54 H23      5.0903   1.8052   1.2334   H         1 RES1   0.0000
    55 H24      5.3973   3.3444   1.5404   H         1 RES1   0.0000
    56 H25      4.0123   2.6955   2.0091   H         1 RES1   0.0000
    57 C24      3.0254   6.7525   3.7112   C.3       1 RES1   0.0000
    58 O7       4.2022   6.4367   2.9363   O.3       1 RES1   0.0000
    59 C25      3.1416   5.4598   3.0455   C.3       1 RES1   0.0000
    60 H26      3.3727   4.6656   3.5859   H         1 RES1   0.0000
    61 H27      2.6933   5.2950   2.1788   H         1 RES1   0.0000
    62 C26      2.1564   7.8244   3.1455   C.3       1 RES1   0.0000
    63 H28      2.0516   7.6856   2.1818   H         1 RES1   0.0000
    64 H29      2.5683   8.6992   3.3071   H         1 RES1   0.0000
    65 H30      1.2763   7.7933   3.5778   H         1 RES1   0.0000
@<TRIPOS>BOND
     1     1     2   ar
     2     2     3    1
     3     4     2   ar
     4     5     4    1
     5     6     4   ar
     6     7     6    1
     7     8     6   ar
     8     9     8   ar
     9    10     9   ar
    10    11    10    1
    11    12    10   ar
    12    13    12    1
    13    14    12   ar
    14    15    14    1
    15    16     1   ar
    16    17     9    1
    17    18    17    1
    18    19    17    1
    19    20    17    1
    20    21     1    1
    21    22    21    2
    22    23    21    1
    23    24    23    1
    24    25    24    1
    25    26    24    1
    26    27    26    2
    27    28    26   am
    28    29    28    1
    29    30    28    1
    30    31    30    2
    31    32    31    1
    32    33    32    1
    33    34    32    1
    34    35    34    1
    35    36    34    1
    36    37    36    1
    37    38    36    1
    38    39    31    1
    39    40    39    1
    40    41    39    1
    41    42    34    1
    42    43    42    1
    43    44    42    1
    44    45    42    1
    45    46    45    1
    46    47    30    1
    47    48    47    2
    48    49    47    1
    49    50    49    1
    50    51    50    1
    51    52    50    1
    52    53    50    1
    53    54    53    1
    54    55    53    1
    55    56    53    1
    56    57    24    1
    57    58    57    1
    58    59    57    1
    59    60    59    1
    60    61    59    1
    61    62    57    1
    62    63    62    1
    63    64    62    1
    64    65    62    1
    65     8    16   ar
    66    14    16   ar
    67    36    39    1
    68    58    59    1
@<TRIPOS>SUBSTRUCTURE
     1 RES1        1 GROUP             0 ****  ****    0  
@<TRIPOS>CRYSIN
    9.0098   12.9780   10.7219   90.0000  109.5920   90.0000     4     1
