@<TRIPOS>MOLECULE
02
    27    27     1     0     0
SMALL
NO_CHARGES
****
Generated from the CSD

@<TRIPOS>ATOM
     1 C15      5.9890   4.3347   6.0849   C.2       1 RES2   0.0000
     2 C16      6.6897   4.4709   7.2526   C.2       1 RES2   0.0000
     3 N2       7.4652   3.5336   7.8153   N.pl3     1 RES2   0.0000
     4 H12      7.7619   2.7526   7.3031   H         1 RES2   0.0000
     5 C17      8.2362   4.0024   8.9728   C.3       1 RES2   0.0000
     6 H13      8.1530   3.3418   9.7203   H         1 RES2   0.0000
     7 C18      7.5141   5.3028   9.3537   C.3       1 RES2   0.0000
     8 H14      8.1641   6.0010   9.6183   H         1 RES2   0.0000
     9 H15      6.8857   5.1497  10.1042   H         1 RES2   0.0000
    10 C19      6.7547   5.7181   8.0850   C.3       1 RES2   0.0000
    11 H16      5.8455   6.0400   8.3082   H         1 RES2   0.0000
    12 H17      7.2390   6.4358   7.6052   H         1 RES2   0.0000
    13 C20      9.6922   4.1919   8.6233   C.3       1 RES2   0.0000
    14 H18     10.2032   4.4359   9.4355   H         1 RES2   0.0000
    15 H19     10.0644   3.3470   8.2637   H         1 RES2   0.0000
    16 O4       9.8117   5.2216   7.6523   O.3       1 RES2   0.0000
    17 H20     10.6972   5.2172   7.2324   H         1 RES2   0.0000
    18 C21      6.0719   3.1459   5.2900   C.2       1 RES2   0.0000
    19 O5       6.7032   2.1354   5.5894   O.2       1 RES2   0.0000
    20 O6       5.3988   3.2398   4.1125   O.3       1 RES2   0.0000
    21 C22      5.5902   2.1479   3.1829   C.3       1 RES2   0.0000
    22 H21      5.1658   1.3251   3.5324   H         1 RES2   0.0000
    23 H22      6.5576   1.9727   3.0596   H         1 RES2   0.0000
    24 C23      4.9696   2.5307   1.8788   C.3       1 RES2   0.0000
    25 H23      5.0903   1.8052   1.2334   H         1 RES2   0.0000
    26 H24      5.3973   3.3444   1.5404   H         1 RES2   0.0000
    27 H25      4.0123   2.6955   2.0091   H         1 RES2   0.0000
@<TRIPOS>BOND
     1     2     1    2
     2     3     2    1
     3     4     3    1
     4     5     3    1
     5     6     5    1
     6     7     5    1
     7     8     7    1
     8     9     7    1
     9    10     2    1
    10    11    10    1
    11    12    10    1
    12    13     5    1
    13    14    13    1
    14    15    13    1
    15    16    13    1
    16    17    16    1
    17    18     1    1
    18    19    18    2
    19    20    18    1
    20    21    20    1
    21    22    21    1
    22    23    21    1
    23    24    21    1
    24    25    24    1
    25    26    24    1
    26    27    24    1
    27     7    10    1
@<TRIPOS>SUBSTRUCTURE
     1 RES2        1 GROUP             0 ****  ****    0  
