@<TRIPOS>MOLECULE
01
    20    21     1     0     0
SMALL
NO_CHARGES
****
Generated from the CSD

@<TRIPOS>ATOM
     1 C1       5.0107   9.7003   6.7728   C.ar      1 RES1   0.0000
     2 C2       5.1190  10.5083   5.6587   C.ar      1 RES1   0.0000
     3 H1       4.7460  10.2228   4.8334   H         1 RES1   0.0000
     4 C3       5.7701  11.7412   5.7304   C.ar      1 RES1   0.0000
     5 H2       5.8168  12.2941   4.9587   H         1 RES1   0.0000
     6 C4       6.3400  12.1591   6.8961   C.ar      1 RES1   0.0000
     7 H3       6.7853  12.9975   6.9233   H         1 RES1   0.0000
     8 C5       6.2786  11.3596   8.0708   C.ar      1 RES1   0.0000
     9 C6       6.8797  11.7996   9.2981   C.ar      1 RES1   0.0000
    10 C7       6.7897  11.0027  10.3991   C.ar      1 RES1   0.0000
    11 H4       7.1711  11.2961  11.2183   H         1 RES1   0.0000
    12 C8       6.1460   9.7530  10.3496   C.ar      1 RES1   0.0000
    13 H5       6.1131   9.2131  11.1305   H         1 RES1   0.0000
    14 C9       5.5696   9.3078   9.2021   C.ar      1 RES1   0.0000
    15 H6       5.1404   8.4591   9.1880   H         1 RES1   0.0000
    16 C10      5.6041  10.0995   8.0244   C.ar      1 RES1   0.0000
    17 C11      7.5809  13.1285   9.3708   C.3       1 RES1   0.0000
    18 H7       7.8839  13.2882  10.2890   H         1 RES1   0.0000
    19 H8       6.9630  13.8397   9.1021   H         1 RES1   0.0000
    20 H9       8.3547  13.1234   8.7688   H         1 RES1   0.0000
@<TRIPOS>BOND
     1     1     2   ar
     2     2     3    1
     3     4     2   ar
     4     5     4    1
     5     6     4   ar
     6     7     6    1
     7     8     6   ar
     8     9     8   ar
     9    10     9   ar
    10    11    10    1
    11    12    10   ar
    12    13    12    1
    13    14    12   ar
    14    15    14    1
    15    16     1   ar
    16    17     9    1
    17    18    17    1
    18    19    17    1
    19    20    17    1
    20     8    16   ar
    21    14    16   ar
@<TRIPOS>SUBSTRUCTURE
     1 RES1        1 GROUP             0 ****  ****    0  
