@<TRIPOS>MOLECULE
01
    23    25     1     0     0
SMALL
NO_CHARGES
****
Generated from the CSD

@<TRIPOS>ATOM
     1 S1      11.0850   1.7993   1.1442   S.3       1 RES1   0.0000
     2 O5       9.0235  -1.0456   4.6596   O.2       1 RES1   0.0000
     3 N1       7.6675   0.3442   3.4301   N.am      1 RES1   0.0000
     4 N2       8.4479   1.8250   1.7538   N.2       1 RES1   0.0000
     5 C19      7.5109   1.3044   2.4718   C.2       1 RES1   0.0000
     6 H21      6.6287   1.6195   2.3194   H         1 RES1   0.0000
     7 C20      9.6924   1.3044   2.0201   C.2       1 RES1   0.0000
     8 C21      8.9188  -0.1966   3.7783   C.2       1 RES1   0.0000
     9 C22      9.9976   0.3566   2.9811   C.2       1 RES1   0.0000
    10 C23     11.3972   0.0390   3.0214   C.2       1 RES1   0.0000
    11 C24     12.0607  -0.9621   3.9308   C.3       1 RES1   0.0000
    12 H22     11.7529  -1.8724   3.6955   H         1 RES1   0.0000
    13 H23     11.7924  -0.7818   4.8667   H         1 RES1   0.0000
    14 C25     13.5907  -0.9019   3.8231   C.3       1 RES1   0.0000
    15 H24     13.9264  -0.1492   4.3710   H         1 RES1   0.0000
    16 H25     13.9748  -1.7385   4.1870   H         1 RES1   0.0000
    17 C26     14.0526  -0.7196   2.3842   C.3       1 RES1   0.0000
    18 H26     13.7008  -1.4605   1.8279   H         1 RES1   0.0000
    19 H27     15.0422  -0.7547   2.3486   H         1 RES1   0.0000
    20 C27     13.5727   0.6100   1.8153   C.3       1 RES1   0.0000
    21 H28     14.0559   1.3582   2.2482   H         1 RES1   0.0000
    22 H29     13.7456   0.6460   0.8428   H         1 RES1   0.0000
    23 C28     12.1010   0.7290   2.0809   C.2       1 RES1   0.0000
@<TRIPOS>BOND
     1     1     7    1
     2     2     8    2
     3     4     5    2
     4     5     3    1
     5     6     5    1
     6     7     4    1
     7     8     3   am
     8     9     7    2
     9    10     9    1
    10    11    10    1
    11    12    11    1
    12    13    11    1
    13    14    11    1
    14    15    14    1
    15    16    14    1
    16    17    14    1
    17    18    17    1
    18    19    17    1
    19    20    17    1
    20    21    20    1
    21    22    20    1
    22    23     1    1
    23     8     9    1
    24    10    23    2
    25    20    23    1
@<TRIPOS>SUBSTRUCTURE
     1 RES1        1 GROUP             0 ****  ****    0  
