@<TRIPOS>MOLECULE
02
    36    37     1     0     0
SMALL
NO_CHARGES
****
Generated from the CSD

@<TRIPOS>ATOM
     1 O1       2.0672   3.9961   5.7589   O.3       1 RES2   0.0000
     2 O2       0.2353   4.9188   7.4960   O.3       1 RES2   0.0000
     3 O3       0.1087   3.9823   9.9933   O.3       1 RES2   0.0000
     4 O4       4.9681  -1.4906  11.5165   O.2       1 RES2   0.0000
     5 N3       5.9679  -0.8377   9.5765   N.am      1 RES2   0.0000
     6 N4       4.9941   0.8609   8.2560   N.2       1 RES2   0.0000
     7 N5       2.5203   0.5976  12.4312   N.1       1 RES2   0.0000
     8 C1       2.8802   3.3763   4.7914   C.3       1 RES2   0.0000
     9 H1       3.8144   3.3966   5.0863   H         1 RES2   0.0000
    10 H2       2.7977   3.8544   3.9402   H         1 RES2   0.0000
    11 H3       2.5941   2.4463   4.6722   H         1 RES2   0.0000
    12 C2      -0.9243   4.3068   6.8430   C.3       1 RES2   0.0000
    13 H4      -0.6172   3.6667   6.1696   H         1 RES2   0.0000
    14 H5      -1.4596   5.0067   6.4101   H         1 RES2   0.0000
    15 H6      -1.4687   3.8460   7.5123   H         1 RES2   0.0000
    16 C3      -0.0415   3.4632  11.3103   C.3       1 RES2   0.0000
    17 H7      -0.0860   2.4848  11.2726   H         1 RES2   0.0000
    18 H8      -0.8678   3.8124  11.7055   H         1 RES2   0.0000
    19 H9       0.7241   3.7349  11.8582   H         1 RES2   0.0000
    20 C4       1.1018   3.5097   9.2126   C.ar      1 RES2   0.0000
    21 C5       1.1371   3.9571   7.8971   C.ar      1 RES2   0.0000
    22 C6       2.1154   3.5032   7.0396   C.ar      1 RES2   0.0000
    23 C7       3.0427   2.5604   7.4725   C.ar      1 RES2   0.0000
    24 H10      3.7041   2.2384   6.8723   H         1 RES2   0.0000
    25 C8       3.0047   2.0833   8.7901   C.ar      1 RES2   0.0000
    26 C9       2.0342   2.5564   9.6560   C.ar      1 RES2   0.0000
    27 H11      1.9990   2.2374  10.5490   H         1 RES2   0.0000
    28 C10      4.0084   1.0663   9.1687   C.2       1 RES2   0.0000
    29 C11      4.0124   0.3205  10.3461   C.2       1 RES2   0.0000
    30 C12      3.1258   0.4914  11.4692   C.1       1 RES2   0.0000
    31 C13      4.9761  -0.7399  10.5804   C.2       1 RES2   0.0000
    32 C14      7.0656  -1.7741   9.8316   C.3       1 RES2   0.0000
    33 H12      7.1873  -2.3549   9.0515   H         1 RES2   0.0000
    34 H13      6.8534  -2.3213  10.6159   H         1 RES2   0.0000
    35 H14      7.8911  -1.2723   9.9969   H         1 RES2   0.0000
    36 C15      5.9290  -0.0173   8.4902   C.2       1 RES2   0.0000
@<TRIPOS>BOND
     1     1     8    1
     2     2    12    1
     3     3    16    1
     4     4    31    2
     5     5    31   am
     6     6    28    1
     7     7    30    3
     8     8     9    1
     9    10     8    1
    10    11     8    1
    11    12    13    1
    12    14    12    1
    13    15    12    1
    14    16    17    1
    15    18    16    1
    16    19    16    1
    17    20     3    1
    18    21     2    1
    19    22     1    1
    20    23    22   ar
    21    24    23    1
    22    25    23   ar
    23    26    20   ar
    24    27    26    1
    25    28    25    1
    26    29    28    2
    27    30    29    1
    28    31    29    1
    29    32     5    1
    30    33    32    1
    31    34    32    1
    32    35    32    1
    33    36     5    1
    34     6    36    2
    35    20    21   ar
    36    21    22   ar
    37    25    26   ar
@<TRIPOS>SUBSTRUCTURE
     1 RES2        1 GROUP             0 ****  ****    0  
