@<TRIPOS>MOLECULE
RAGBAF
    69    73     1     0     0
SMALL
NO_CHARGES
****
Generated from the CSD

@<TRIPOS>ATOM
     1 S1      11.0850   1.7993   1.1442   S.3       1 RES1   0.0000
     2 S2       7.2614  -0.1931   7.3565   S.3       1 RES1   0.0000
     3 O1       2.0672   3.9961   5.7589   O.3       1 RES1   0.0000
     4 O2       0.2353   4.9188   7.4960   O.3       1 RES1   0.0000
     5 O3       0.1087   3.9823   9.9933   O.3       1 RES1   0.0000
     6 O4       4.9681  -1.4906  11.5165   O.2       1 RES1   0.0000
     7 O5       9.0235  -1.0456   4.6596   O.2       1 RES1   0.0000
     8 N1       7.6675   0.3442   3.4301   N.am      1 RES1   0.0000
     9 N2       8.4479   1.8250   1.7538   N.2       1 RES1   0.0000
    10 N3       5.9679  -0.8377   9.5765   N.am      1 RES1   0.0000
    11 N4       4.9941   0.8609   8.2560   N.2       1 RES1   0.0000
    12 N5       2.5203   0.5976  12.4312   N.1       1 RES1   0.0000
    13 C1       2.8802   3.3763   4.7914   C.3       1 RES1   0.0000
    14 H1       3.8144   3.3966   5.0863   H         1 RES1   0.0000
    15 H2       2.7977   3.8544   3.9402   H         1 RES1   0.0000
    16 H3       2.5941   2.4463   4.6722   H         1 RES1   0.0000
    17 C2      -0.9243   4.3068   6.8430   C.3       1 RES1   0.0000
    18 H4      -0.6172   3.6667   6.1696   H         1 RES1   0.0000
    19 H5      -1.4596   5.0067   6.4101   H         1 RES1   0.0000
    20 H6      -1.4687   3.8460   7.5123   H         1 RES1   0.0000
    21 C3      -0.0415   3.4632  11.3103   C.3       1 RES1   0.0000
    22 H7      -0.0860   2.4848  11.2726   H         1 RES1   0.0000
    23 H8      -0.8678   3.8124  11.7055   H         1 RES1   0.0000
    24 H9       0.7241   3.7349  11.8582   H         1 RES1   0.0000
    25 C4       1.1018   3.5097   9.2126   C.ar      1 RES1   0.0000
    26 C5       1.1371   3.9571   7.8971   C.ar      1 RES1   0.0000
    27 C6       2.1154   3.5032   7.0396   C.ar      1 RES1   0.0000
    28 C7       3.0427   2.5604   7.4725   C.ar      1 RES1   0.0000
    29 H10      3.7041   2.2384   6.8723   H         1 RES1   0.0000
    30 C8       3.0047   2.0833   8.7901   C.ar      1 RES1   0.0000
    31 C9       2.0342   2.5564   9.6560   C.ar      1 RES1   0.0000
    32 H11      1.9990   2.2374  10.5490   H         1 RES1   0.0000
    33 C10      4.0084   1.0663   9.1687   C.2       1 RES1   0.0000
    34 C11      4.0124   0.3205  10.3461   C.2       1 RES1   0.0000
    35 C12      3.1258   0.4914  11.4692   C.1       1 RES1   0.0000
    36 C13      4.9761  -0.7399  10.5804   C.2       1 RES1   0.0000
    37 C14      7.0656  -1.7741   9.8316   C.3       1 RES1   0.0000
    38 H12      7.1873  -2.3549   9.0515   H         1 RES1   0.0000
    39 H13      6.8534  -2.3213  10.6159   H         1 RES1   0.0000
    40 H14      7.8911  -1.2723   9.9969   H         1 RES1   0.0000
    41 C15      5.9290  -0.0173   8.4902   C.2       1 RES1   0.0000
    42 C16      6.9210   1.1849   6.2135   C.3       1 RES1   0.0000
    43 H15      6.5687   1.9504   6.7322   H         1 RES1   0.0000
    44 H16      7.7718   1.4708   5.7953   H         1 RES1   0.0000
    45 C17      5.9308   0.8391   5.1155   C.3       1 RES1   0.0000
    46 H17      5.1081   0.4741   5.5296   H         1 RES1   0.0000
    47 H18      5.6824   1.6689   4.6366   H         1 RES1   0.0000
    48 C18      6.4573  -0.1610   4.1180   C.3       1 RES1   0.0000
    49 H19      6.6753  -1.0066   4.5843   H         1 RES1   0.0000
    50 H20      5.7549  -0.3541   3.4466   H         1 RES1   0.0000
    51 C19      7.5109   1.3044   2.4718   C.2       1 RES1   0.0000
    52 H21      6.6287   1.6195   2.3194   H         1 RES1   0.0000
    53 C20      9.6924   1.3044   2.0201   C.2       1 RES1   0.0000
    54 C21      8.9188  -0.1966   3.7783   C.2       1 RES1   0.0000
    55 C22      9.9976   0.3566   2.9811   C.2       1 RES1   0.0000
    56 C23     11.3972   0.0390   3.0214   C.2       1 RES1   0.0000
    57 C24     12.0607  -0.9621   3.9308   C.3       1 RES1   0.0000
    58 H22     11.7529  -1.8724   3.6955   H         1 RES1   0.0000
    59 H23     11.7924  -0.7818   4.8667   H         1 RES1   0.0000
    60 C25     13.5907  -0.9019   3.8231   C.3       1 RES1   0.0000
    61 H24     13.9264  -0.1492   4.3710   H         1 RES1   0.0000
    62 H25     13.9748  -1.7385   4.1870   H         1 RES1   0.0000
    63 C26     14.0526  -0.7196   2.3842   C.3       1 RES1   0.0000
    64 H26     13.7008  -1.4605   1.8279   H         1 RES1   0.0000
    65 H27     15.0422  -0.7547   2.3486   H         1 RES1   0.0000
    66 C27     13.5727   0.6100   1.8153   C.3       1 RES1   0.0000
    67 H28     14.0559   1.3582   2.2482   H         1 RES1   0.0000
    68 H29     13.7456   0.6460   0.8428   H         1 RES1   0.0000
    69 C28     12.1010   0.7290   2.0809   C.2       1 RES1   0.0000
@<TRIPOS>BOND
     1     1    53    1
     2     2    41    1
     3     3    13    1
     4     4    17    1
     5     5    21    1
     6     6    36    2
     7     7    54    2
     8     8    48    1
     9     9    51    2
    10    10    36   am
    11    11    33    1
    12    12    35    3
    13    13    14    1
    14    15    13    1
    15    16    13    1
    16    17    18    1
    17    19    17    1
    18    20    17    1
    19    21    22    1
    20    23    21    1
    21    24    21    1
    22    25     5    1
    23    26     4    1
    24    27     3    1
    25    28    27   ar
    26    29    28    1
    27    30    28   ar
    28    31    25   ar
    29    32    31    1
    30    33    30    1
    31    34    33    2
    32    35    34    1
    33    36    34    1
    34    37    10    1
    35    38    37    1
    36    39    37    1
    37    40    37    1
    38    41    10    1
    39    42     2    1
    40    43    42    1
    41    44    42    1
    42    45    42    1
    43    46    45    1
    44    47    45    1
    45    48    45    1
    46    49    48    1
    47    50    48    1
    48    51     8    1
    49    52    51    1
    50    53     9    1
    51    54     8   am
    52    55    53    2
    53    56    55    1
    54    57    56    1
    55    58    57    1
    56    59    57    1
    57    60    57    1
    58    61    60    1
    59    62    60    1
    60    63    60    1
    61    64    63    1
    62    65    63    1
    63    66    63    1
    64    67    66    1
    65    68    66    1
    66    69     1    1
    67    11    41    2
    68    25    26   ar
    69    26    27   ar
    70    30    31   ar
    71    54    55    1
    72    56    69    2
    73    66    69    1
@<TRIPOS>SUBSTRUCTURE
     1 RES1        1 GROUP             0 ****  ****    0  
@<TRIPOS>CRYSIN
   25.5750    4.9390   21.0410   90.0000   96.3000   90.0000    14     1
