@<TRIPOS>MOLECULE
02
    27    29     1     0     0
SMALL
NO_CHARGES
****
Generated from the CSD

@<TRIPOS>ATOM
     1 N6      -0.0238  -0.8083  10.3942   N.pl3     1 RES2   0.0000
     2 C13      0.1828   2.4876   7.8883   C.ar      1 RES2   0.0000
     3 C14     -0.3669   2.6808   9.1624   C.ar      1 RES2   0.0000
     4 H9      -0.6749   3.5457   9.4057   H         1 RES2   0.0000
     5 C15     -0.4738   1.6483  10.0751   C.ar      1 RES2   0.0000
     6 H10     -0.8465   1.7907  10.9370   H         1 RES2   0.0000
     7 C16     -0.0191   0.3993   9.6913   C.ar      1 RES2   0.0000
     8 C17      0.5378   0.1825   8.4219   C.ar      1 RES2   0.0000
     9 C18      0.6401   1.2384   7.5029   C.ar      1 RES2   0.0000
    10 H11      1.0135   1.0997   6.6404   H         1 RES2   0.0000
    11 C19      0.9105  -1.2168   8.3513   C.ar      1 RES2   0.0000
    12 C20      1.4706  -2.0265   7.3729   C.ar      1 RES2   0.0000
    13 H12      1.7153  -1.6576   6.5326   H         1 RES2   0.0000
    14 C21      1.6719  -3.3761   7.6257   C.ar      1 RES2   0.0000
    15 H13      2.0463  -3.9338   6.9542   H         1 RES2   0.0000
    16 C22      1.3216  -3.9119   8.8716   C.ar      1 RES2   0.0000
    17 H14      1.4651  -4.8383   9.0327   H         1 RES2   0.0000
    18 C23      0.7724  -3.1355   9.8724   C.ar      1 RES2   0.0000
    19 H15      0.5523  -3.5108  10.7168   H         1 RES2   0.0000
    20 C24      0.5514  -1.7799   9.6062   C.ar      1 RES2   0.0000
    21 C25     -0.4808  -0.9772  11.7704   C.3       1 RES2   0.0000
    22 H16     -0.7540  -1.9190  11.9058   H         1 RES2   0.0000
    23 H17     -1.2764  -0.4072  11.9188   H         1 RES2   0.0000
    24 C26      0.5739  -0.6208  12.7846   C.3       1 RES2   0.0000
    25 H18      0.2168  -0.7540  13.6882   H         1 RES2   0.0000
    26 H19      0.8337   0.3171  12.6709   H         1 RES2   0.0000
    27 H20      1.3578  -1.1956  12.6566   H         1 RES2   0.0000
@<TRIPOS>BOND
     1     1     7    1
     2     3     2   ar
     3     4     3    1
     4     5     3   ar
     5     6     5    1
     6     7     5   ar
     7     8     7   ar
     8     9     2   ar
     9    10     9    1
    10    11     8    1
    11    12    11   ar
    12    13    12    1
    13    14    12   ar
    14    15    14    1
    15    16    14   ar
    16    17    16    1
    17    18    16   ar
    18    19    18    1
    19    20     1    1
    20    21     1    1
    21    22    21    1
    22    23    21    1
    23    24    21    1
    24    25    24    1
    25    26    24    1
    26    27    24    1
    27     8     9   ar
    28    11    20   ar
    29    18    20   ar
@<TRIPOS>SUBSTRUCTURE
     1 RES2        1 GROUP             0 ****  ****    0  
