@<TRIPOS>MOLECULE
01
    19    20     1     0     0
SMALL
NO_CHARGES
****
Generated from the CSD

@<TRIPOS>ATOM
     1 O1       1.3952   6.7066   1.9341   O.3       1 RES1   0.0000
     2 O3      -1.6436  14.2321   4.3367   O.2       1 RES1   0.0000
     3 O4      -0.4326  14.8396   2.6494   O.2       1 RES1   0.0000
     4 N1       1.1636   8.0647   1.5987   N.2       1 RES1   0.0000
     5 N2       0.7399   7.6996   3.7926   N.2       1 RES1   0.0000
     6 N4      -0.8515  13.9960   3.4307   N.pl3     1 RES1   0.0000
     7 N5       1.6775  10.6070  -0.4191   N.1       1 RES1   0.0000
     8 C1       0.7847   8.5790   2.7270   C.2       1 RES1   0.0000
     9 C2       1.1175   6.5918   3.2513   C.2       1 RES1   0.0000
    10 C6       0.3977   9.9914   2.8820   C.ar      1 RES1   0.0000
    11 C7      -0.2267  10.3837   4.0668   C.ar      1 RES1   0.0000
    12 H6      -0.3741   9.7388   4.7491   H         1 RES1   0.0000
    13 C8      -0.6359  11.6875   4.2723   C.ar      1 RES1   0.0000
    14 H7      -1.0724  11.9417   5.0771   H         1 RES1   0.0000
    15 C9      -0.3924  12.6121   3.2725   C.ar      1 RES1   0.0000
    16 C10      0.2285  12.2806   2.0941   C.ar      1 RES1   0.0000
    17 H8       0.3884  12.9415   1.4318   H         1 RES1   0.0000
    18 C11      0.6199  10.9585   1.8840   C.ar      1 RES1   0.0000
    19 C12      1.2437  10.6700   0.5839   C.1       1 RES1   0.0000
@<TRIPOS>BOND
     1     1     4    1
     2     2     6    2
     3     3     6    2
     4     4     8    2
     5     5     8    1
     6     6    15    1
     7     7    19    3
     8     8    10    1
     9     9     1    1
    10    10    11   ar
    11    11    12    1
    12    13    11   ar
    13    14    13    1
    14    15    13   ar
    15    16    15   ar
    16    17    16    1
    17    18    10   ar
    18    19    18    1
    19     5     9    2
    20    16    18   ar
@<TRIPOS>SUBSTRUCTURE
     1 RES1        1 GROUP             0 ****  ****    0  
