@<TRIPOS>MOLECULE
RAKWOQ
    79    82     1     0     0
SMALL
NO_CHARGES
****
Generated from the CSD

@<TRIPOS>ATOM
     1 S1       6.2518   1.5386  18.6407   S.o2      1 RES1   0.0000
     2 O1       7.1799   2.5232  19.0825   O.2       1 RES1   0.0000
     3 O2       6.1793   0.3144  19.3621   O.2       1 RES1   0.0000
     4 O3       3.4381   3.8114  19.5935   O.2       1 RES1   0.0000
     5 O4       5.6860   2.8037  23.4244   O.2       1 RES1   0.0000
     6 O5       3.1365   6.8907  23.1304   O.2       1 RES1   0.0000
     7 O6       1.0071   6.1427  23.2589   O.3       1 RES1   0.0000
     8 N1       4.7145   2.2480  18.5849   N.am      1 RES1   0.0000
     9 N2       3.8808   3.0188  22.0903   N.am      1 RES1   0.0000
    10 H1       3.1074   3.3857  22.0107   H         1 RES1   0.0000
    11 N3       2.6561   4.7519  23.7573   N.am      1 RES1   0.0000
    12 H2       2.0346   4.1594  23.7997   H         1 RES1   0.0000
    13 C1       6.4023   1.3066  16.8857   C.3       1 RES1   0.0000
    14 H3       7.2273   1.7016  16.5644   H         1 RES1   0.0000
    15 H4       6.4120   0.3600  16.6723   H         1 RES1   0.0000
    16 C2       5.2132   1.9763  16.2310   C.3       1 RES1   0.0000
    17 C3       4.5152   2.8890  17.2663   C.3       1 RES1   0.0000
    18 H5       4.9310   3.7761  17.2622   H         1 RES1   0.0000
    19 C4       3.0794   2.9884  16.7601   C.3       1 RES1   0.0000
    20 H6       2.8037   3.9128  16.6603   H         1 RES1   0.0000
    21 H7       2.4633   2.5337  17.3558   H         1 RES1   0.0000
    22 C5       3.1667   2.2813  15.3991   C.3       1 RES1   0.0000
    23 H8       2.2985   2.0511  15.0079   H         1 RES1   0.0000
    24 C6       4.0671   3.1461  14.4914   C.3       1 RES1   0.0000
    25 H9       3.8399   4.0858  14.5667   H         1 RES1   0.0000
    26 H10      3.9885   2.8762  13.5618   H         1 RES1   0.0000
    27 C7       5.4846   2.8715  15.0324   C.3       1 RES1   0.0000
    28 H11      6.0318   2.4192  14.3724   H         1 RES1   0.0000
    29 H12      5.9241   3.6943  15.3005   H         1 RES1   0.0000
    30 C8       4.0650   1.0647  15.7180   C.3       1 RES1   0.0000
    31 C9       4.4570   0.2396  14.4830   C.3       1 RES1   0.0000
    32 H13      3.6697  -0.1461  14.0918   H         1 RES1   0.0000
    33 H14      5.0602  -0.4605  14.7441   H         1 RES1   0.0000
    34 H15      4.8868   0.8087  13.8400   H         1 RES1   0.0000
    35 C10      3.4704   0.1005  16.7409   C.3       1 RES1   0.0000
    36 H16      2.7035  -0.3354  16.3629   H         1 RES1   0.0000
    37 H17      3.2065   0.5879  17.5236   H         1 RES1   0.0000
    38 H18      4.1264  -0.5586  16.9793   H         1 RES1   0.0000
    39 C11      4.1393   2.8283  19.7074   C.2       1 RES1   0.0000
    40 C12      4.3170   2.1130  21.0423   C.3       1 RES1   0.0000
    41 H19      5.2670   1.9097  21.1713   H         1 RES1   0.0000
    42 C13      4.6078   3.3156  23.1728   C.2       1 RES1   0.0000
    43 C14      4.0144   4.3873  24.0969   C.3       1 RES1   0.0000
    44 H20      4.5561   5.1937  23.9652   H         1 RES1   0.0000
    45 C15      2.3481   6.0200  23.3707   C.2       1 RES1   0.0000
    46 C16      0.5547   7.3885  22.7069   C.3       1 RES1   0.0000
    47 H21      1.0846   8.1096  23.0803   H         1 RES1   0.0000
    48 H22     -0.3684   7.5323  22.9676   H         1 RES1   0.0000
    49 C17      0.6538   7.4329  21.2130   C.ar      1 RES1   0.0000
    50 C18      0.6053   6.3390  20.4566   C.ar      1 RES1   0.0000
    51 H23      0.5461   5.5046  20.8643   H         1 RES1   0.0000
    52 C19      0.6452   6.4232  19.0153   C.ar      1 RES1   0.0000
    53 H24      0.6344   5.6705  18.4685   H         1 RES1   0.0000
    54 C20      0.6990   7.6982  18.5141   C.ar      1 RES1   0.0000
    55 H25      0.6818   7.7999  17.5908   H         1 RES1   0.0000
    56 C21      0.7723   8.7711  19.2384   C.ar      1 RES1   0.0000
    57 H26      0.8520   9.6055  18.8379   H         1 RES1   0.0000
    58 C22      0.7303   8.6554  20.5981   C.ar      1 RES1   0.0000
    59 H27      0.7529   9.4244  21.1209   H         1 RES1   0.0000
    60 C23      3.5103   0.7900  21.0533   C.3       1 RES1   0.0000
    61 H28      3.8829   0.2139  20.3535   H         1 RES1   0.0000
    62 C24      2.0573   1.0238  20.7204   C.3       1 RES1   0.0000
    63 H29      1.5920   0.1847  20.7109   H         1 RES1   0.0000
    64 H30      1.9905   1.4363  19.8547   H         1 RES1   0.0000
    65 H31      1.6663   1.6000  21.3800   H         1 RES1   0.0000
    66 C25      3.7074   0.0783  22.3802   C.3       1 RES1   0.0000
    67 H32      3.3089  -0.7935  22.3368   H         1 RES1   0.0000
    68 H33      3.2916   0.5867  23.0803   H         1 RES1   0.0000
    69 H34      4.6466  -0.0070  22.5623   H         1 RES1   0.0000
    70 C26      4.1824   3.9911  25.5672   C.3       1 RES1   0.0000
    71 H35      5.1388   3.8380  25.7207   H         1 RES1   0.0000
    72 C27      3.4543   2.6962  25.9200   C.3       1 RES1   0.0000
    73 H36      3.7677   1.9880  25.3538   H         1 RES1   0.0000
    74 H37      2.5107   2.8154  25.7926   H         1 RES1   0.0000
    75 H38      3.6277   2.4718  26.8383   H         1 RES1   0.0000
    76 C28      3.7612   5.1516  26.4627   C.3       1 RES1   0.0000
    77 H39      4.1953   5.9569  26.1692   H         1 RES1   0.0000
    78 H40      4.0144   4.9646  27.3707   H         1 RES1   0.0000
    79 H41      2.8091   5.2650  26.4138   H         1 RES1   0.0000
@<TRIPOS>BOND
     1     1     2    2
     2     3     1    2
     3     4    39    2
     4     5    42    2
     5     6    45    2
     6     7    45    1
     7     8     1    1
     8     9    10    1
     9    11    12    1
    10    13     1    1
    11    14    13    1
    12    15    13    1
    13    16    13    1
    14    17     8    1
    15    18    17    1
    16    19    17    1
    17    20    19    1
    18    21    19    1
    19    22    19    1
    20    23    22    1
    21    24    22    1
    22    25    24    1
    23    26    24    1
    24    27    16    1
    25    28    27    1
    26    29    27    1
    27    30    16    1
    28    31    30    1
    29    32    31    1
    30    33    31    1
    31    34    31    1
    32    35    30    1
    33    36    35    1
    34    37    35    1
    35    38    35    1
    36    39     8   am
    37    40     9    1
    38    41    40    1
    39    42     9   am
    40    43    11    1
    41    44    43    1
    42    45    11   am
    43    46     7    1
    44    47    46    1
    45    48    46    1
    46    49    46    1
    47    50    49   ar
    48    51    50    1
    49    52    50   ar
    50    53    52    1
    51    54    52   ar
    52    55    54    1
    53    56    54   ar
    54    57    56    1
    55    58    49   ar
    56    59    58    1
    57    60    40    1
    58    61    60    1
    59    62    60    1
    60    63    62    1
    61    64    62    1
    62    65    62    1
    63    66    60    1
    64    67    66    1
    65    68    66    1
    66    69    66    1
    67    70    43    1
    68    71    70    1
    69    72    70    1
    70    73    72    1
    71    74    72    1
    72    75    72    1
    73    76    70    1
    74    77    76    1
    75    78    76    1
    76    79    76    1
    77    16    17    1
    78    22    30    1
    79    24    27    1
    80    39    40    1
    81    42    43    1
    82    56    58   ar
@<TRIPOS>SUBSTRUCTURE
     1 RES1        1 GROUP             0 ****  ****    0  
@<TRIPOS>CRYSIN
   10.7710   11.6870   23.9820   90.0000   90.0000   90.0000    19     1
