@<TRIPOS>MOLECULE
02
    14    14     1     0     0
SMALL
NO_CHARGES
****
Generated from the CSD

@<TRIPOS>ATOM
     1 C16      0.5547   7.3885  22.7069   C.3       1 RES2   0.0000
     2 H21      1.0846   8.1096  23.0803   H         1 RES2   0.0000
     3 H22     -0.3684   7.5323  22.9676   H         1 RES2   0.0000
     4 C17      0.6538   7.4329  21.2130   C.ar      1 RES2   0.0000
     5 C18      0.6053   6.3390  20.4566   C.ar      1 RES2   0.0000
     6 H23      0.5461   5.5046  20.8643   H         1 RES2   0.0000
     7 C19      0.6452   6.4232  19.0153   C.ar      1 RES2   0.0000
     8 H24      0.6344   5.6705  18.4685   H         1 RES2   0.0000
     9 C20      0.6990   7.6982  18.5141   C.ar      1 RES2   0.0000
    10 H25      0.6818   7.7999  17.5908   H         1 RES2   0.0000
    11 C21      0.7723   8.7711  19.2384   C.ar      1 RES2   0.0000
    12 H26      0.8520   9.6055  18.8379   H         1 RES2   0.0000
    13 C22      0.7303   8.6554  20.5981   C.ar      1 RES2   0.0000
    14 H27      0.7529   9.4244  21.1209   H         1 RES2   0.0000
@<TRIPOS>BOND
     1     2     1    1
     2     3     1    1
     3     4     1    1
     4     5     4   ar
     5     6     5    1
     6     7     5   ar
     7     8     7    1
     8     9     7   ar
     9    10     9    1
    10    11     9   ar
    11    12    11    1
    12    13     4   ar
    13    14    13    1
    14    11    13   ar
@<TRIPOS>SUBSTRUCTURE
     1 RES2        1 GROUP             0 ****  ****    0  
