@<TRIPOS>MOLECULE
01
    30    32     1     0     0
SMALL
NO_CHARGES
****
Generated from the CSD

@<TRIPOS>ATOM
     1 S1       6.2518   1.5386  18.6407   S.o2      1 RES1   0.0000
     2 O1       7.1799   2.5232  19.0825   O.2       1 RES1   0.0000
     3 O2       6.1793   0.3144  19.3621   O.2       1 RES1   0.0000
     4 N1       4.7145   2.2480  18.5849   N.2       1 RES1   0.0000
     5 C1       6.4023   1.3066  16.8857   C.3       1 RES1   0.0000
     6 H3       7.2273   1.7016  16.5644   H         1 RES1   0.0000
     7 H4       6.4120   0.3600  16.6723   H         1 RES1   0.0000
     8 C2       5.2132   1.9763  16.2310   C.3       1 RES1   0.0000
     9 C3       4.5152   2.8890  17.2663   C.3       1 RES1   0.0000
    10 H5       4.9310   3.7761  17.2622   H         1 RES1   0.0000
    11 C4       3.0794   2.9884  16.7601   C.3       1 RES1   0.0000
    12 H6       2.8037   3.9128  16.6603   H         1 RES1   0.0000
    13 H7       2.4633   2.5337  17.3558   H         1 RES1   0.0000
    14 C5       3.1667   2.2813  15.3991   C.3       1 RES1   0.0000
    15 H8       2.2985   2.0511  15.0079   H         1 RES1   0.0000
    16 C6       4.0671   3.1461  14.4914   C.3       1 RES1   0.0000
    17 H9       3.8399   4.0858  14.5667   H         1 RES1   0.0000
    18 H10      3.9885   2.8762  13.5618   H         1 RES1   0.0000
    19 C7       5.4846   2.8715  15.0324   C.3       1 RES1   0.0000
    20 H11      6.0318   2.4192  14.3724   H         1 RES1   0.0000
    21 H12      5.9241   3.6943  15.3005   H         1 RES1   0.0000
    22 C8       4.0650   1.0647  15.7180   C.3       1 RES1   0.0000
    23 C9       4.4570   0.2396  14.4830   C.3       1 RES1   0.0000
    24 H13      3.6697  -0.1461  14.0918   H         1 RES1   0.0000
    25 H14      5.0602  -0.4605  14.7441   H         1 RES1   0.0000
    26 H15      4.8868   0.8087  13.8400   H         1 RES1   0.0000
    27 C10      3.4704   0.1005  16.7409   C.3       1 RES1   0.0000
    28 H16      2.7035  -0.3354  16.3629   H         1 RES1   0.0000
    29 H17      3.2065   0.5879  17.5236   H         1 RES1   0.0000
    30 H18      4.1264  -0.5586  16.9793   H         1 RES1   0.0000
@<TRIPOS>BOND
     1     1     2    2
     2     3     1    2
     3     4     1    1
     4     5     1    1
     5     6     5    1
     6     7     5    1
     7     8     5    1
     8     9     4    1
     9    10     9    1
    10    11     9    1
    11    12    11    1
    12    13    11    1
    13    14    11    1
    14    15    14    1
    15    16    14    1
    16    17    16    1
    17    18    16    1
    18    19     8    1
    19    20    19    1
    20    21    19    1
    21    22     8    1
    22    23    22    1
    23    24    23    1
    24    25    23    1
    25    26    23    1
    26    27    22    1
    27    28    27    1
    28    29    27    1
    29    30    27    1
    30     8     9    1
    31    14    22    1
    32    16    19    1
@<TRIPOS>SUBSTRUCTURE
     1 RES1        1 GROUP             0 ****  ****    0  
