@<TRIPOS>MOLECULE
01
    30    32     1     0     0
SMALL
NO_CHARGES
****
Generated from the CSD

@<TRIPOS>ATOM
     1 S1       4.3347  10.2537   6.7264   S.o2      1 RES1   0.0000
     2 O1       3.3081   9.3517   7.1328   O.2       1 RES1   0.0000
     3 O2       4.3844  11.5198   7.3637   O.2       1 RES1   0.0000
     4 N1       5.8371   9.4874   6.8984   N.2       1 RES1   0.0000
     5 C1       6.2762   8.8949   5.6184   C.3       1 RES1   0.0000
     6 H3       5.9112   7.9894   5.5272   H         1 RES1   0.0000
     7 C2       5.7161   9.8016   4.5026   C.3       1 RES1   0.0000
     8 C3       4.4042  10.3755   4.9606   C.3       1 RES1   0.0000
     9 H4       3.6689   9.8827   4.5636   H         1 RES1   0.0000
    10 H5       4.3332  11.3030   4.6884   H         1 RES1   0.0000
    11 C4       7.7915   8.8798   5.3335   C.3       1 RES1   0.0000
    12 H6       8.1273   7.9744   5.2515   H         1 RES1   0.0000
    13 H7       8.2858   9.3436   6.0266   H         1 RES1   0.0000
    14 C5       7.8676   9.6311   3.9901   C.3       1 RES1   0.0000
    15 H8       8.7708   9.9245   3.7484   H         1 RES1   0.0000
    16 C6       7.1835   8.7604   2.9217   C.3       1 RES1   0.0000
    17 H9       7.3900   9.0758   2.0285   H         1 RES1   0.0000
    18 H10      7.4536   7.8317   3.0015   H         1 RES1   0.0000
    19 C7       5.6911   8.9343   3.2423   C.3       1 RES1   0.0000
    20 H11      5.2260   9.3819   2.5186   H         1 RES1   0.0000
    21 H12      5.2666   8.0787   3.4138   H         1 RES1   0.0000
    22 C8       6.8748  10.7789   4.1998   C.3       1 RES1   0.0000
    23 C9       6.6203  11.6392   2.9504   C.3       1 RES1   0.0000
    24 H13      6.4055  11.0700   2.2076   H         1 RES1   0.0000
    25 H14      7.4098  12.1470   2.7447   H         1 RES1   0.0000
    26 H15      5.8893  12.2386   3.1170   H         1 RES1   0.0000
    27 C10      7.2753  11.7343   5.3229   C.3       1 RES1   0.0000
    28 H16      8.0522  12.2317   5.0583   H         1 RES1   0.0000
    29 H17      7.4724  11.2299   6.1162   H         1 RES1   0.0000
    30 H18      6.5525  12.3407   5.5013   H         1 RES1   0.0000
@<TRIPOS>BOND
     1     1     2    2
     2     3     1    2
     3     4     1    1
     4     5     4    1
     5     6     5    1
     6     7     5    1
     7     8     1    1
     8     9     8    1
     9    10     8    1
    10    11     5    1
    11    12    11    1
    12    13    11    1
    13    14    11    1
    14    15    14    1
    15    16    14    1
    16    17    16    1
    17    18    16    1
    18    19     7    1
    19    20    19    1
    20    21    19    1
    21    22     7    1
    22    23    22    1
    23    24    23    1
    24    25    23    1
    25    26    23    1
    26    27    22    1
    27    28    27    1
    28    29    27    1
    29    30    27    1
    30     7     8    1
    31    14    22    1
    32    16    19    1
@<TRIPOS>SUBSTRUCTURE
     1 RES1        1 GROUP             0 ****  ****    0  
