@<TRIPOS>MOLECULE
02
    11    11     1     0     0
SMALL
NO_CHARGES
****
Generated from the CSD

@<TRIPOS>ATOM
     1 C17      8.7572   4.0127   9.6931   C.ar      1 RES2   0.0000
     2 C18      8.9491   2.8718   8.9269   C.ar      1 RES2   0.0000
     3 H23      8.8334   2.0371   9.3203   H         1 RES2   0.0000
     4 C19      9.2995   2.9437   7.6217   C.ar      1 RES2   0.0000
     5 H24      9.4153   2.1646   7.1269   H         1 RES2   0.0000
     6 C20      9.4841   4.1680   7.0303   C.ar      1 RES2   0.0000
     7 H25      9.7428   4.2237   6.1374   H         1 RES2   0.0000
     8 C21      9.2839   5.3135   7.7654   C.ar      1 RES2   0.0000
     9 H26      9.3861   6.1460   7.3649   H         1 RES2   0.0000
    10 C22      8.9324   5.2289   9.0930   C.ar      1 RES2   0.0000
    11 H27      8.8135   6.0069   9.5866   H         1 RES2   0.0000
@<TRIPOS>BOND
     1     2     1   ar
     2     3     2    1
     3     4     2   ar
     4     5     4    1
     5     6     4   ar
     6     7     6    1
     7     8     6   ar
     8     9     8    1
     9    10     1   ar
    10    11    10    1
    11     8    10   ar
@<TRIPOS>SUBSTRUCTURE
     1 RES2        1 GROUP             0 ****  ****    0  
