@<TRIPOS>MOLECULE
RAKXIL
    77    80     1     0     0
SMALL
NO_CHARGES
****
Generated from the CSD

@<TRIPOS>ATOM
     1 S1       4.3347  10.2537   6.7264   S.o2      1 RES1   0.0000
     2 O1       3.3081   9.3517   7.1328   O.2       1 RES1   0.0000
     3 O2       4.3844  11.5198   7.3637   O.2       1 RES1   0.0000
     4 O3       7.0521   8.0323   8.1214   O.2       1 RES1   0.0000
     5 O4       3.9098   8.9436  11.4165   O.2       1 RES1   0.0000
     6 O5       5.8465   4.7048  11.5569   O.2       1 RES1   0.0000
     7 O6       8.0762   5.1083  11.7588   O.3       1 RES1   0.0000
     8 N1       5.8371   9.4874   6.8984   N.am      1 RES1   0.0000
     9 N2       5.9414   8.6735  10.4727   N.am      1 RES1   0.0000
    10 H1       6.6954   8.2654  10.5337   H         1 RES1   0.0000
    11 N3       6.6485   6.7326  12.2286   N.am      1 RES1   0.0000
    12 H2       7.3597   7.1964  12.3643   H         1 RES1   0.0000
    13 C1       6.2762   8.8949   5.6184   C.3       1 RES1   0.0000
    14 H3       5.9112   7.9894   5.5272   H         1 RES1   0.0000
    15 C2       5.7161   9.8016   4.5026   C.3       1 RES1   0.0000
    16 C3       4.4042  10.3755   4.9606   C.3       1 RES1   0.0000
    17 H4       3.6689   9.8827   4.5636   H         1 RES1   0.0000
    18 H5       4.3332  11.3030   4.6884   H         1 RES1   0.0000
    19 C4       7.7915   8.8798   5.3335   C.3       1 RES1   0.0000
    20 H6       8.1273   7.9744   5.2515   H         1 RES1   0.0000
    21 H7       8.2858   9.3436   6.0266   H         1 RES1   0.0000
    22 C5       7.8676   9.6311   3.9901   C.3       1 RES1   0.0000
    23 H8       8.7708   9.9245   3.7484   H         1 RES1   0.0000
    24 C6       7.1835   8.7604   2.9217   C.3       1 RES1   0.0000
    25 H9       7.3900   9.0758   2.0285   H         1 RES1   0.0000
    26 H10      7.4536   7.8317   3.0015   H         1 RES1   0.0000
    27 C7       5.6911   8.9343   3.2423   C.3       1 RES1   0.0000
    28 H11      5.2260   9.3819   2.5186   H         1 RES1   0.0000
    29 H12      5.2666   8.0787   3.4138   H         1 RES1   0.0000
    30 C8       6.8748  10.7789   4.1998   C.3       1 RES1   0.0000
    31 C9       6.6203  11.6392   2.9504   C.3       1 RES1   0.0000
    32 H13      6.4055  11.0700   2.2076   H         1 RES1   0.0000
    33 H14      7.4098  12.1470   2.7447   H         1 RES1   0.0000
    34 H15      5.8893  12.2386   3.1170   H         1 RES1   0.0000
    35 C10      7.2753  11.7343   5.3229   C.3       1 RES1   0.0000
    36 H16      8.0522  12.2317   5.0583   H         1 RES1   0.0000
    37 H17      7.4724  11.2299   6.1162   H         1 RES1   0.0000
    38 H18      6.5525  12.3407   5.5013   H         1 RES1   0.0000
    39 C11      6.2553   8.9436   8.1011   C.2       1 RES1   0.0000
    40 C12      5.7620   9.6114   9.3811   C.3       1 RES1   0.0000
    41 H19      4.8119   9.8306   9.2897   H         1 RES1   0.0000
    42 C13      5.0080   8.4033  11.3873   C.2       1 RES1   0.0000
    43 C14      5.3605   7.3448  12.4359   C.3       1 RES1   0.0000
    44 H20      4.7004   6.6283  12.3313   H         1 RES1   0.0000
    45 C15      6.7642   5.4445  11.8248   C.2       1 RES1   0.0000
    46 C16      8.3839   3.8515  11.1290   C.3       1 RES1   0.0000
    47 H21      7.6132   3.2660  11.1934   H         1 RES1   0.0000
    48 H22      9.1181   3.4307  11.6033   H         1 RES1   0.0000
    49 C17      8.7572   4.0127   9.6931   C.ar      1 RES1   0.0000
    50 C18      8.9491   2.8718   8.9269   C.ar      1 RES1   0.0000
    51 H23      8.8334   2.0371   9.3203   H         1 RES1   0.0000
    52 C19      9.2995   2.9437   7.6217   C.ar      1 RES1   0.0000
    53 H24      9.4153   2.1646   7.1269   H         1 RES1   0.0000
    54 C20      9.4841   4.1680   7.0303   C.ar      1 RES1   0.0000
    55 H25      9.7428   4.2237   6.1374   H         1 RES1   0.0000
    56 C21      9.2839   5.3135   7.7654   C.ar      1 RES1   0.0000
    57 H26      9.3861   6.1460   7.3649   H         1 RES1   0.0000
    58 C22      8.9324   5.2289   9.0930   C.ar      1 RES1   0.0000
    59 H27      8.8135   6.0069   9.5866   H         1 RES1   0.0000
    60 C23      6.5671  10.9007   9.6111   C.3       1 RES1   0.0000
    61 H28      7.4922  10.6676   9.7868   H         1 RES1   0.0000
    62 H29      6.5452  11.4340   8.8020   H         1 RES1   0.0000
    63 C24      6.0603  11.7041  10.7247   C.2       1 RES1   0.0000
    64 H30      5.1676  11.9615  10.6750   H         1 RES1   0.0000
    65 C25      6.7131  12.0949  11.7659   C.2       1 RES1   0.0000
    66 H31      7.6090  11.8665  11.8672   H         1 RES1   0.0000
    67 H32      6.2887  12.6062  12.4185   H         1 RES1   0.0000
    68 C26      5.1780   7.8862  13.8568   C.3       1 RES1   0.0000
    69 H33      4.2696   8.2514  13.9122   H         1 RES1   0.0000
    70 C27      6.1270   9.0109  14.1704   C.3       1 RES1   0.0000
    71 H34      5.9477   9.3448  15.0525   H         1 RES1   0.0000
    72 H35      6.0081   9.7181  13.5305   H         1 RES1   0.0000
    73 H36      7.0302   8.6897  14.1266   H         1 RES1   0.0000
    74 C28      5.2750   6.7686  14.8784   C.3       1 RES1   0.0000
    75 H37      4.6732   6.0613  14.6355   H         1 RES1   0.0000
    76 H38      5.0403   7.1060  15.7451   H         1 RES1   0.0000
    77 H39      6.1740   6.4312  14.8993   H         1 RES1   0.0000
@<TRIPOS>BOND
     1     1     2    2
     2     3     1    2
     3     4    39    2
     4     5    42    2
     5     6    45    2
     6     7    45    1
     7     8     1    1
     8     9    10    1
     9    11    12    1
    10    13     8    1
    11    14    13    1
    12    15    13    1
    13    16     1    1
    14    17    16    1
    15    18    16    1
    16    19    13    1
    17    20    19    1
    18    21    19    1
    19    22    19    1
    20    23    22    1
    21    24    22    1
    22    25    24    1
    23    26    24    1
    24    27    15    1
    25    28    27    1
    26    29    27    1
    27    30    15    1
    28    31    30    1
    29    32    31    1
    30    33    31    1
    31    34    31    1
    32    35    30    1
    33    36    35    1
    34    37    35    1
    35    38    35    1
    36    39     8   am
    37    40     9    1
    38    41    40    1
    39    42     9   am
    40    43    11    1
    41    44    43    1
    42    45    11   am
    43    46     7    1
    44    47    46    1
    45    48    46    1
    46    49    46    1
    47    50    49   ar
    48    51    50    1
    49    52    50   ar
    50    53    52    1
    51    54    52   ar
    52    55    54    1
    53    56    54   ar
    54    57    56    1
    55    58    49   ar
    56    59    58    1
    57    60    40    1
    58    61    60    1
    59    62    60    1
    60    63    60    1
    61    64    63    1
    62    65    63    2
    63    66    65    1
    64    67    65    1
    65    68    43    1
    66    69    68    1
    67    70    68    1
    68    71    70    1
    69    72    70    1
    70    73    70    1
    71    74    68    1
    72    75    74    1
    73    76    74    1
    74    77    74    1
    75    15    16    1
    76    22    30    1
    77    24    27    1
    78    39    40    1
    79    42    43    1
    80    56    58   ar
@<TRIPOS>SUBSTRUCTURE
     1 RES1        1 GROUP             0 ****  ****    0  
@<TRIPOS>CRYSIN
   10.4290   11.5940   23.5600   90.0000   90.0000   90.0000    19     1
