@<TRIPOS>MOLECULE
RAWKIL
    74    78     1     0     0
SMALL
NO_CHARGES
****
Generated from the CSD

@<TRIPOS>ATOM
     1 C1       8.9963   4.7778  16.9160   C.3       1 RES1   0.0000
     2 C2       9.7011   5.9330  16.1662   C.3       1 RES1   0.0000
     3 C3       9.0870   7.2852  16.5448   C.3       1 RES1   0.0000
     4 H1       9.6316   7.6953  17.2490   H         1 RES1   0.0000
     5 C4       7.6855   7.0403  17.0857   C.3       1 RES1   0.0000
     6 H2       7.1966   7.8855  17.1559   H         1 RES1   0.0000
     7 C5       6.9747   6.0959  16.1252   C.3       1 RES1   0.0000
     8 H3       6.9179   6.5105  15.2503   H         1 RES1   0.0000
     9 H4       6.0709   5.9375  16.4408   H         1 RES1   0.0000
    10 C6       7.7309   4.7254  16.0036   C.3       1 RES1   0.0000
    11 C7       6.8639   3.6340  16.6480   C.3       1 RES1   0.0000
    12 C8       7.1496   3.8516  18.1514   C.3       1 RES1   0.0000
    13 H5       7.4330   3.0189  18.5622   H         1 RES1   0.0000
    14 H6       6.3498   4.1604  18.6038   H         1 RES1   0.0000
    15 C9       8.2982   4.9373  18.2691   C.3       1 RES1   0.0000
    16 H7       8.9118   4.7049  18.9980   H         1 RES1   0.0000
    17 C10      7.7745   6.3670  18.4523   C.3       1 RES1   0.0000
    18 H8       6.8982   6.3453  18.8673   H         1 RES1   0.0000
    19 H9       8.3727   6.8660  19.0297   H         1 RES1   0.0000
    20 C11      8.3790   4.6616  14.6408   C.3       1 RES1   0.0000
    21 H10      8.7265   3.7753  14.4560   H         1 RES1   0.0000
    22 H11      7.7564   4.9134  13.9410   H         1 RES1   0.0000
    23 C12     11.7975   6.8261  15.4900   C.3       1 RES1   0.0000
    24 H12     11.5635   6.6484  14.5768   H         1 RES1   0.0000
    25 H13     12.7435   6.7053  15.6069   H         1 RES1   0.0000
    26 H14     11.5609   7.7295  15.7118   H         1 RES1   0.0000
    27 C13      9.1482   9.5169  15.7673   C.3       1 RES1   0.0000
    28 H15      8.4096   9.7447  16.3378   H         1 RES1   0.0000
    29 H16      9.1139  10.0523  14.9710   H         1 RES1   0.0000
    30 H17      9.9725   9.6821  16.2288   H         1 RES1   0.0000
    31 C14      5.0412   3.6751  15.0998   C.3       1 RES1   0.0000
    32 H18      5.3716   4.4349  14.6164   H         1 RES1   0.0000
    33 H19      4.0809   3.6648  15.0641   H         1 RES1   0.0000
    34 H20      5.3834   2.8696  14.7056   H         1 RES1   0.0000
    35 C15      6.6905   1.2315  16.7280   C.3       1 RES1   0.0000
    36 H21      7.0330   1.1255  17.6174   H         1 RES1   0.0000
    37 H22      6.9066   0.4545  16.2070   H         1 RES1   0.0000
    38 H23      5.7370   1.3386  16.7617   H         1 RES1   0.0000
    39 C16      9.8958   3.5122  16.8908   C.3       1 RES1   0.0000
    40 H24      9.3242   2.7364  17.0013   H         1 RES1   0.0000
    41 H25     10.2982   3.4484  16.0109   H         1 RES1   0.0000
    42 C17     11.0150   3.4244  17.9266   C.3       1 RES1   0.0000
    43 H26     11.6330   4.1615  17.7976   H         1 RES1   0.0000
    44 H27     10.6374   3.5019  18.8158   H         1 RES1   0.0000
    45 C18     11.7642   2.1155  17.8111   C.3       1 RES1   0.0000
    46 H28     11.2119   1.3978  18.1581   H         1 RES1   0.0000
    47 H29     11.9442   1.9298  16.8766   H         1 RES1   0.0000
    48 C19     14.1929   2.6372  17.7877   C.3       1 RES1   0.0000
    49 H30     14.3336   2.0654  17.0291   H         1 RES1   0.0000
    50 H31     14.9749   2.6270  18.3443   H         1 RES1   0.0000
    51 H32     14.0259   3.5327  17.4866   H         1 RES1   0.0000
    52 C20     13.7068  -0.4750  19.0353   C.ar      1 RES1   0.0000
    53 C21     12.7222  -1.4103  18.8079   C.ar      1 RES1   0.0000
    54 H33     11.8318  -1.1984  18.9683   H         1 RES1   0.0000
    55 C22     13.0611  -2.6646  18.3422   C.ar      1 RES1   0.0000
    56 H34     12.3931  -3.2946  18.1958   H         1 RES1   0.0000
    57 C23     14.3805  -3.0018  18.0906   C.ar      1 RES1   0.0000
    58 C24     15.3534  -2.0403  18.2913   C.ar      1 RES1   0.0000
    59 H35     16.2422  -2.2454  18.1106   H         1 RES1   0.0000
    60 C25     15.0318  -0.7883  18.7524   C.ar      1 RES1   0.0000
    61 H36     15.6984  -0.1515  18.8752   H         1 RES1   0.0000
    62 C26     14.7653  -4.4064  17.6550   C.3       1 RES1   0.0000
    63 H37     14.0347  -5.0056  17.8273   H         1 RES1   0.0000
    64 H38     15.5369  -4.6946  18.1482   H         1 RES1   0.0000
    65 H39     14.9659  -4.4076  16.7181   H         1 RES1   0.0000
    66 N1      13.0388   2.1542  18.5567   N.pl3     1 RES1   0.0000
    67 O1       9.4403   5.6254  14.7694   O.3       1 RES1   0.0000
    68 O2      11.0925   5.9227  16.3473   O.3       1 RES1   0.0000
    69 O3       9.0699   8.1453  15.4169   O.3       1 RES1   0.0000
    70 O4       5.4647   3.7571  16.4606   O.3       1 RES1   0.0000
    71 O5       7.2756   2.3809  16.1282   O.3       1 RES1   0.0000
    72 O6      14.4757   1.5402  20.4353   O.2       1 RES1   0.0000
    73 O7      12.0780   0.9364  20.4547   O.2       1 RES1   0.0000
    74 S1      13.3062   1.0977  19.7410   S.o2      1 RES1   0.0000
@<TRIPOS>BOND
     1     1     2    1
     2     2     3    1
     3     3     4    1
     4     5     3    1
     5     6     5    1
     6     7     5    1
     7     8     7    1
     8     9     7    1
     9    10     1    1
    10    11    10    1
    11    12    11    1
    12    13    12    1
    13    14    12    1
    14    15     1    1
    15    16    15    1
    16    17     5    1
    17    18    17    1
    18    19    17    1
    19    20    10    1
    20    21    20    1
    21    22    20    1
    22    23    24    1
    23    25    23    1
    24    26    23    1
    25    27    28    1
    26    29    27    1
    27    30    27    1
    28    31    32    1
    29    33    31    1
    30    34    31    1
    31    35    36    1
    32    37    35    1
    33    38    35    1
    34    39     1    1
    35    40    39    1
    36    41    39    1
    37    42    39    1
    38    43    42    1
    39    44    42    1
    40    45    42    1
    41    46    45    1
    42    47    45    1
    43    48    49    1
    44    50    48    1
    45    51    48    1
    46    52    53   ar
    47    53    54    1
    48    55    53   ar
    49    56    55    1
    50    57    55   ar
    51    58    57   ar
    52    59    58    1
    53    60    52   ar
    54    61    60    1
    55    62    57    1
    56    63    62    1
    57    64    62    1
    58    65    62    1
    59    66    45    1
    60    67     2    1
    61    68     2    1
    62    69     3    1
    63    70    11    1
    64    71    11    1
    65    72    74    2
    66    73    74    2
    67    74    52    1
    68     7    10    1
    69    12    15    1
    70    15    17    1
    71    20    67    1
    72    23    68    1
    73    27    69    1
    74    31    70    1
    75    35    71    1
    76    48    66    1
    77    58    60   ar
    78    66    74    1
@<TRIPOS>SUBSTRUCTURE
     1 RES1        1 GROUP             0 ****  ****    0  
@<TRIPOS>CRYSIN
   11.4470   11.3920   19.8200   90.0000   91.9800   90.0000    14     1
