@<TRIPOS>MOLECULE
02
    17    17     1     0     0
SMALL
NO_CHARGES
****
Generated from the CSD

@<TRIPOS>ATOM
     1 C20     13.7068  -0.4750  19.0353   C.ar      1 RES2   0.0000
     2 C21     12.7222  -1.4103  18.8079   C.ar      1 RES2   0.0000
     3 H33     11.8318  -1.1984  18.9683   H         1 RES2   0.0000
     4 C22     13.0611  -2.6646  18.3422   C.ar      1 RES2   0.0000
     5 H34     12.3931  -3.2946  18.1958   H         1 RES2   0.0000
     6 C23     14.3805  -3.0018  18.0906   C.ar      1 RES2   0.0000
     7 C24     15.3534  -2.0403  18.2913   C.ar      1 RES2   0.0000
     8 H35     16.2422  -2.2454  18.1106   H         1 RES2   0.0000
     9 C25     15.0318  -0.7883  18.7524   C.ar      1 RES2   0.0000
    10 H36     15.6984  -0.1515  18.8752   H         1 RES2   0.0000
    11 C26     14.7653  -4.4064  17.6550   C.3       1 RES2   0.0000
    12 H37     14.0347  -5.0056  17.8273   H         1 RES2   0.0000
    13 H38     15.5369  -4.6946  18.1482   H         1 RES2   0.0000
    14 H39     14.9659  -4.4076  16.7181   H         1 RES2   0.0000
    15 O6      14.4757   1.5402  20.4353   O.2       1 RES2   0.0000
    16 O7      12.0780   0.9364  20.4547   O.2       1 RES2   0.0000
    17 S1      13.3062   1.0977  19.7410   S.o       1 RES2   0.0000
@<TRIPOS>BOND
     1     1     2   ar
     2     2     3    1
     3     4     2   ar
     4     5     4    1
     5     6     4   ar
     6     7     6   ar
     7     8     7    1
     8     9     1   ar
     9    10     9    1
    10    11     6    1
    11    12    11    1
    12    13    11    1
    13    14    11    1
    14    15    17    2
    15    16    17    2
    16    17     1    1
    17     7     9   ar
@<TRIPOS>SUBSTRUCTURE
     1 RES2        1 GROUP             0 ****  ****    0  
