@<TRIPOS>MOLECULE
01
    43    46     1     0     0
SMALL
NO_CHARGES
****
Generated from the CSD

@<TRIPOS>ATOM
     1 C1       8.9963   4.7778  16.9160   C.3       1 RES1   0.0000
     2 C2       9.7011   5.9330  16.1662   C.3       1 RES1   0.0000
     3 C3       9.0870   7.2852  16.5448   C.3       1 RES1   0.0000
     4 H1       9.6316   7.6953  17.2490   H         1 RES1   0.0000
     5 C4       7.6855   7.0403  17.0857   C.3       1 RES1   0.0000
     6 H2       7.1966   7.8855  17.1559   H         1 RES1   0.0000
     7 C5       6.9747   6.0959  16.1252   C.3       1 RES1   0.0000
     8 H3       6.9179   6.5105  15.2503   H         1 RES1   0.0000
     9 H4       6.0709   5.9375  16.4408   H         1 RES1   0.0000
    10 C6       7.7309   4.7254  16.0036   C.3       1 RES1   0.0000
    11 C7       6.8639   3.6340  16.6480   C.3       1 RES1   0.0000
    12 C8       7.1496   3.8516  18.1514   C.3       1 RES1   0.0000
    13 H5       7.4330   3.0189  18.5622   H         1 RES1   0.0000
    14 H6       6.3498   4.1604  18.6038   H         1 RES1   0.0000
    15 C9       8.2982   4.9373  18.2691   C.3       1 RES1   0.0000
    16 H7       8.9118   4.7049  18.9980   H         1 RES1   0.0000
    17 C10      7.7745   6.3670  18.4523   C.3       1 RES1   0.0000
    18 H8       6.8982   6.3453  18.8673   H         1 RES1   0.0000
    19 H9       8.3727   6.8660  19.0297   H         1 RES1   0.0000
    20 C11      8.3790   4.6616  14.6408   C.3       1 RES1   0.0000
    21 H10      8.7265   3.7753  14.4560   H         1 RES1   0.0000
    22 H11      7.7564   4.9134  13.9410   H         1 RES1   0.0000
    23 C12     11.7975   6.8261  15.4900   C.3       1 RES1   0.0000
    24 H12     11.5635   6.6484  14.5768   H         1 RES1   0.0000
    25 H13     12.7435   6.7053  15.6069   H         1 RES1   0.0000
    26 H14     11.5609   7.7295  15.7118   H         1 RES1   0.0000
    27 C13      9.1482   9.5169  15.7673   C.3       1 RES1   0.0000
    28 H15      8.4096   9.7447  16.3378   H         1 RES1   0.0000
    29 H16      9.1139  10.0523  14.9710   H         1 RES1   0.0000
    30 H17      9.9725   9.6821  16.2288   H         1 RES1   0.0000
    31 C14      5.0412   3.6751  15.0998   C.3       1 RES1   0.0000
    32 H18      5.3716   4.4349  14.6164   H         1 RES1   0.0000
    33 H19      4.0809   3.6648  15.0641   H         1 RES1   0.0000
    34 H20      5.3834   2.8696  14.7056   H         1 RES1   0.0000
    35 C15      6.6905   1.2315  16.7280   C.3       1 RES1   0.0000
    36 H21      7.0330   1.1255  17.6174   H         1 RES1   0.0000
    37 H22      6.9066   0.4545  16.2070   H         1 RES1   0.0000
    38 H23      5.7370   1.3386  16.7617   H         1 RES1   0.0000
    39 O1       9.4403   5.6254  14.7694   O.3       1 RES1   0.0000
    40 O2      11.0925   5.9227  16.3473   O.3       1 RES1   0.0000
    41 O3       9.0699   8.1453  15.4169   O.3       1 RES1   0.0000
    42 O4       5.4647   3.7571  16.4606   O.3       1 RES1   0.0000
    43 O5       7.2756   2.3809  16.1282   O.3       1 RES1   0.0000
@<TRIPOS>BOND
     1     1     2    1
     2     2     3    1
     3     3     4    1
     4     5     3    1
     5     6     5    1
     6     7     5    1
     7     8     7    1
     8     9     7    1
     9    10     1    1
    10    11    10    1
    11    12    11    1
    12    13    12    1
    13    14    12    1
    14    15     1    1
    15    16    15    1
    16    17     5    1
    17    18    17    1
    18    19    17    1
    19    20    10    1
    20    21    20    1
    21    22    20    1
    22    23    24    1
    23    25    23    1
    24    26    23    1
    25    27    28    1
    26    29    27    1
    27    30    27    1
    28    31    32    1
    29    33    31    1
    30    34    31    1
    31    35    36    1
    32    37    35    1
    33    38    35    1
    34    39     2    1
    35    40     2    1
    36    41     3    1
    37    42    11    1
    38    43    11    1
    39     7    10    1
    40    12    15    1
    41    15    17    1
    42    20    39    1
    43    23    40    1
    44    27    41    1
    45    31    42    1
    46    35    43    1
@<TRIPOS>SUBSTRUCTURE
     1 RES1        1 GROUP             0 ****  ****    0  
