@<TRIPOS>MOLECULE
01
    19    19     1     0     0
SMALL
NO_CHARGES
****
Generated from the CSD

@<TRIPOS>ATOM
     1 O4       1.8898   4.1585   4.9022   O.3       1 RES1   0.0000
     2 O6       1.2291   3.7751   7.0114   O.2       1 RES1   0.0000
     3 N1      -0.2967   3.9925   5.2696   N.am      1 RES1   0.0000
     4 C11     -0.2033   3.9094   3.8058   C.3       1 RES1   0.0000
     5 C12      0.9582   3.9754   5.8688   C.2       1 RES1   0.0000
     6 C15     -1.2518   4.6469   3.0219   C.3       1 RES1   0.0000
     7 C16      1.2344   4.4186   3.6490   C.3       1 RES1   0.0000
     8 C17     -0.7943   4.8813   1.5966   C.3       1 RES1   0.0000
     9 C21     -1.6731   5.9667   3.6538   C.3       1 RES1   0.0000
    10 H6      -0.2296   2.9449   3.5403   H         1 RES1   0.0000
    11 H9      -2.0619   4.0621   2.9835   H         1 RES1   0.0000
    12 H10      1.6934   3.9400   2.9123   H         1 RES1   0.0000
    13 H11      1.2392   5.3880   3.4490   H         1 RES1   0.0000
    14 H12     -1.5707   5.0718   1.0301   H         1 RES1   0.0000
    15 H13     -0.3361   4.0816   1.2638   H         1 RES1   0.0000
    16 H14     -0.1787   5.6444   1.5725   H         1 RES1   0.0000
    17 H21     -2.4362   6.3367   3.1614   H         1 RES1   0.0000
    18 H22     -0.9254   6.5992   3.6202   H         1 RES1   0.0000
    19 H23     -1.9303   5.8153   4.5877   H         1 RES1   0.0000
@<TRIPOS>BOND
     1     1     5    1
     2     2     5    2
     3     4     3    1
     4     5     3   am
     5     6     4    1
     6     7     1    1
     7     8     6    1
     8     9     6    1
     9    10     4    1
    10    11     6    1
    11    12     7    1
    12    13     7    1
    13    14     8    1
    14    15     8    1
    15    16     8    1
    16    17     9    1
    17    18     9    1
    18    19     9    1
    19     4     7    1
@<TRIPOS>SUBSTRUCTURE
     1 RES1        1 GROUP             0 ****  ****    0  
