@<TRIPOS>MOLECULE
02
    15    15     1     0     0
SMALL
NO_CHARGES
****
Generated from the CSD

@<TRIPOS>ATOM
     1 O5      -2.4029   7.0656  15.0779   O.2       1 RES2   0.0000
     2 O7      -3.0253   8.7725  16.2455   O.2       1 RES2   0.0000
     3 O8      -1.6228  13.5097  12.5215   O.2       1 RES2   0.0000
     4 O9      -2.3690  13.2179  14.5335   O.2       1 RES2   0.0000
     5 N2      -1.9628  12.7991  13.4515   N.pl3     1 RES2   0.0000
     6 N3      -2.5592   8.2682  15.2395   N.pl3     1 RES2   0.0000
     7 C2      -1.6969   8.6113  12.9658   C.ar      1 RES2   0.0000
     8 C4      -2.1537   9.1656  14.1382   C.ar      1 RES2   0.0000
     9 C7      -1.3418   9.4586  11.9175   C.ar      1 RES2   0.0000
    10 C8      -1.4323  10.8310  12.0685   C.ar      1 RES2   0.0000
    11 C9      -1.8919  11.3328  13.2746   C.ar      1 RES2   0.0000
    12 C13     -2.2726  10.5294  14.3383   C.ar      1 RES2   0.0000
    13 H1      -1.6250   7.6687  12.8706   H         1 RES2   0.0000
    14 H4      -1.1843  11.4158  11.3616   H         1 RES2   0.0000
    15 H7      -2.5948  10.8932  15.1539   H         1 RES2   0.0000
@<TRIPOS>BOND
     1     1     6    2
     2     2     6    2
     3     3     5    2
     4     4     5    2
     5     5    11    1
     6     6     8    1
     7     7     8   ar
     8     8    12   ar
     9     9     7   ar
    10    10     9   ar
    11    11    10   ar
    12    12    11   ar
    13    13     7    1
    14    14    10    1
    15    15    12    1
@<TRIPOS>SUBSTRUCTURE
     1 RES2        1 GROUP             0 ****  ****    0  
