@<TRIPOS>MOLECULE
01
    33    34     1     0     0
SMALL
NO_CHARGES
****
Generated from the CSD

@<TRIPOS>ATOM
     1 S1       5.4428   1.1925   6.6163   S.o2      1 RES1   0.0000
     2 O1       5.7935   2.3070   5.7983   O.2       1 RES1   0.0000
     3 O2       6.3646   0.7147   7.6070   O.2       1 RES1   0.0000
     4 O3       2.0488   4.4728   6.9001   O.2       1 RES1   0.0000
     5 N1       4.0840   1.5491   7.3811   N.pl3     1 RES1   0.0000
     6 N4       4.8788  -1.3036   6.1196   N.ar      1 RES1   0.0000
     7 C1       3.7829   4.0199  11.0904   C.3       1 RES1   0.0000
     8 C2       3.0641   2.3693   6.7514   C.3       1 RES1   0.0000
     9 C3       2.9016   3.7489   7.3567   C.2       1 RES1   0.0000
    10 C4       3.7588   4.1482   8.5490   C.3       1 RES1   0.0000
    11 C5       3.3837   3.2954   9.8072   C.3       1 RES1   0.0000
    12 C6       4.0708   1.9175   9.8245   C.3       1 RES1   0.0000
    13 C7       3.7532   0.9681   8.6867   C.3       1 RES1   0.0000
    14 C23      5.0889  -0.1464   5.5172   C.ar      1 RES1   0.0000
    15 C24      5.0152   0.0875   4.1576   C.ar      1 RES1   0.0000
    16 C25      4.6794  -0.9579   3.3578   C.ar      1 RES1   0.0000
    17 C26      4.4861  -2.1565   3.9026   C.ar      1 RES1   0.0000
    18 C27      4.5833  -2.3267   5.2758   C.ar      1 RES1   0.0000
    19 H3       3.5874   3.4495  11.8618   H         1 RES1   0.0000
    20 H4       3.2759   4.8546  11.1647   H         1 RES1   0.0000
    21 H5       4.7417   4.2199  11.0684   H         1 RES1   0.0000
    22 H6       2.1976   1.8952   6.8085   H         1 RES1   0.0000
    23 H7       3.2875   2.4694   5.7925   H         1 RES1   0.0000
    24 H8       4.7163   3.9705   8.3219   H         1 RES1   0.0000
    25 H9       2.3930   3.1572   9.8142   H         1 RES1   0.0000
    26 H10      5.0500   2.0650   9.8352   H         1 RES1   0.0000
    27 H11      3.8324   1.4672  10.6743   H         1 RES1   0.0000
    28 H12      4.2643   0.1299   8.8088   H         1 RES1   0.0000
    29 H13      2.7890   0.7424   8.7090   H         1 RES1   0.0000
    30 H29      5.1926   0.9476   3.7957   H         1 RES1   0.0000
    31 H30      4.5833  -0.8354   2.4207   H         1 RES1   0.0000
    32 H31      4.2802  -2.9004   3.3491   H         1 RES1   0.0000
    33 H32      4.4375  -3.1912   5.6419   H         1 RES1   0.0000
@<TRIPOS>BOND
     1     1     2    2
     2     3     1    2
     3     4     9    2
     4     5     1    1
     5     6    14   ar
     6     7    11    1
     7     8     5    1
     8     9     8    1
     9    10     9    1
    10    11    10    1
    11    12    11    1
    12    13     5    1
    13    14     1    1
    14    15    14   ar
    15    16    15   ar
    16    17    16   ar
    17    18     6   ar
    18    19     7    1
    19    20     7    1
    20    21     7    1
    21    22     8    1
    22    23     8    1
    23    24    10    1
    24    25    11    1
    25    26    12    1
    26    27    12    1
    27    28    13    1
    28    29    13    1
    29    30    15    1
    30    31    16    1
    31    32    17    1
    32    33    18    1
    33    12    13    1
    34    17    18   ar
@<TRIPOS>SUBSTRUCTURE
     1 RES1        1 GROUP             0 ****  ****    0  
