@<TRIPOS>MOLECULE
02
    14    15     1     0     0
SMALL
NO_CHARGES
****
Generated from the CSD

@<TRIPOS>ATOM
     1 O6       0.7218   9.4849   8.0817   O.3       1 RES2   0.0000
     2 C15      1.7172   9.5168   7.1313   C.2       1 RES2   0.0000
     3 C16      1.2504   9.9181   5.9334   C.2       1 RES2   0.0000
     4 C17     -1.2176  10.5296   5.2581   C.ar      1 RES2   0.0000
     5 C18     -2.4754  10.6238   5.8059   C.ar      1 RES2   0.0000
     6 C19     -2.7109  10.3618   7.1660   C.ar      1 RES2   0.0000
     7 C20     -1.6717   9.9878   8.0078   C.ar      1 RES2   0.0000
     8 C21     -0.4306   9.8815   7.4352   C.ar      1 RES2   0.0000
     9 C22     -0.1622  10.1470   6.0933   C.ar      1 RES2   0.0000
    10 H24      1.7552  10.0296   5.1357   H         1 RES2   0.0000
    11 H25     -1.0687  10.7189   4.3387   H         1 RES2   0.0000
    12 H26     -3.2051  10.8724   5.2495   H         1 RES2   0.0000
    13 H27     -3.5906  10.4414   7.5144   H         1 RES2   0.0000
    14 H28     -1.8132   9.8155   8.9314   H         1 RES2   0.0000
@<TRIPOS>BOND
     1     1     2    1
     2     3     2    2
     3     4     5   ar
     4     5     6   ar
     5     6     7   ar
     6     7     8   ar
     7     8     1    1
     8     9     3    1
     9    10     3    1
    10    11     4    1
    11    12     5    1
    12    13     6    1
    13    14     7    1
    14     4     9   ar
    15     8     9   ar
@<TRIPOS>SUBSTRUCTURE
     1 RES2        1 GROUP             0 ****  ****    0  
