@<TRIPOS>MOLECULE
REVHOQ
    70    73     1     0     0
SMALL
NO_CHARGES
****
Generated from the CSD

@<TRIPOS>ATOM
     1 S1       5.4428   1.1925   6.6163   S.o2      1 RES1   0.0000
     2 O1       5.7935   2.3070   5.7983   O.2       1 RES1   0.0000
     3 O2       6.3646   0.7147   7.6070   O.2       1 RES1   0.0000
     4 O3       2.0488   4.4728   6.9001   O.2       1 RES1   0.0000
     5 O4       5.7990   6.0292   8.9184   O.2       1 RES1   0.0000
     6 O5       4.0476   9.2635   6.8361   O.2       1 RES1   0.0000
     7 O6       0.7218   9.4849   8.0817   O.3       1 RES1   0.0000
     8 N1       4.0840   1.5491   7.3811   N.pl3     1 RES1   0.0000
     9 N2       3.5969   5.5737   8.7610   N.am      1 RES1   0.0000
    10 N3       3.0846   8.3566   8.6829   N.am      1 RES1   0.0000
    11 N4       4.8788  -1.3036   6.1196   N.ar      1 RES1   0.0000
    12 C1       3.7829   4.0199  11.0904   C.3       1 RES1   0.0000
    13 C2       3.0641   2.3693   6.7514   C.3       1 RES1   0.0000
    14 C3       2.9016   3.7489   7.3567   C.2       1 RES1   0.0000
    15 C4       3.7588   4.1482   8.5490   C.3       1 RES1   0.0000
    16 C5       3.3837   3.2954   9.8072   C.3       1 RES1   0.0000
    17 C6       4.0708   1.9175   9.8245   C.3       1 RES1   0.0000
    18 C7       3.7532   0.9681   8.6867   C.3       1 RES1   0.0000
    19 C8       4.6309   6.4031   8.9579   C.2       1 RES1   0.0000
    20 C9       4.3107   7.8651   9.2954   C.3       1 RES1   0.0000
    21 C10      4.1849   8.0747  10.8112   C.3       1 RES1   0.0000
    22 C11      5.3501   7.6242  11.6911   C.3       1 RES1   0.0000
    23 C12      6.6576   8.3265  11.3411   C.3       1 RES1   0.0000
    24 C13      4.9835   7.8706  13.1519   C.3       1 RES1   0.0000
    25 C14      3.0609   9.0468   7.5279   C.2       1 RES1   0.0000
    26 C15      1.7172   9.5168   7.1313   C.2       1 RES1   0.0000
    27 C16      1.2504   9.9181   5.9334   C.2       1 RES1   0.0000
    28 C17     -1.2176  10.5296   5.2581   C.ar      1 RES1   0.0000
    29 C18     -2.4754  10.6238   5.8059   C.ar      1 RES1   0.0000
    30 C19     -2.7109  10.3618   7.1660   C.ar      1 RES1   0.0000
    31 C20     -1.6717   9.9878   8.0078   C.ar      1 RES1   0.0000
    32 C21     -0.4306   9.8815   7.4352   C.ar      1 RES1   0.0000
    33 C22     -0.1622  10.1470   6.0933   C.ar      1 RES1   0.0000
    34 C23      5.0889  -0.1464   5.5172   C.ar      1 RES1   0.0000
    35 C24      5.0152   0.0875   4.1576   C.ar      1 RES1   0.0000
    36 C25      4.6794  -0.9579   3.3578   C.ar      1 RES1   0.0000
    37 C26      4.4861  -2.1565   3.9026   C.ar      1 RES1   0.0000
    38 C27      4.5833  -2.3267   5.2758   C.ar      1 RES1   0.0000
    39 H1       2.8302   5.8908   8.7965   H         1 RES1   0.0000
    40 H2       2.3909   8.2480   9.1241   H         1 RES1   0.0000
    41 H3       3.5874   3.4495  11.8618   H         1 RES1   0.0000
    42 H4       3.2759   4.8546  11.1647   H         1 RES1   0.0000
    43 H5       4.7417   4.2199  11.0684   H         1 RES1   0.0000
    44 H6       2.1976   1.8952   6.8085   H         1 RES1   0.0000
    45 H7       3.2875   2.4694   5.7925   H         1 RES1   0.0000
    46 H8       4.7163   3.9705   8.3219   H         1 RES1   0.0000
    47 H9       2.3930   3.1572   9.8142   H         1 RES1   0.0000
    48 H10      5.0500   2.0650   9.8352   H         1 RES1   0.0000
    49 H11      3.8324   1.4672  10.6743   H         1 RES1   0.0000
    50 H12      4.2643   0.1299   8.8088   H         1 RES1   0.0000
    51 H13      2.7890   0.7424   8.7090   H         1 RES1   0.0000
    52 H14      5.0680   8.4310   8.9682   H         1 RES1   0.0000
    53 H15      4.0373   9.0406  10.9738   H         1 RES1   0.0000
    54 H16      3.3720   7.6000  11.1174   H         1 RES1   0.0000
    55 H17      5.4788   6.6406  11.5623   H         1 RES1   0.0000
    56 H18      7.3649   8.0207  11.9459   H         1 RES1   0.0000
    57 H19      6.5433   9.2960  11.4362   H         1 RES1   0.0000
    58 H20      6.9045   8.1152  10.4168   H         1 RES1   0.0000
    59 H21      5.6826   7.5011  13.7308   H         1 RES1   0.0000
    60 H22      4.1292   7.4347  13.3524   H         1 RES1   0.0000
    61 H23      4.9032   8.8340  13.3104   H         1 RES1   0.0000
    62 H24      1.7552  10.0296   5.1357   H         1 RES1   0.0000
    63 H25     -1.0687  10.7189   4.3387   H         1 RES1   0.0000
    64 H26     -3.2051  10.8724   5.2495   H         1 RES1   0.0000
    65 H27     -3.5906  10.4414   7.5144   H         1 RES1   0.0000
    66 H28     -1.8132   9.8155   8.9314   H         1 RES1   0.0000
    67 H29      5.1926   0.9476   3.7957   H         1 RES1   0.0000
    68 H30      4.5833  -0.8354   2.4207   H         1 RES1   0.0000
    69 H31      4.2802  -2.9004   3.3491   H         1 RES1   0.0000
    70 H32      4.4375  -3.1912   5.6419   H         1 RES1   0.0000
@<TRIPOS>BOND
     1     1     2    2
     2     3     1    2
     3     4    14    2
     4     5    19    2
     5     6    25    2
     6     7    26    1
     7     8     1    1
     8     9    15    1
     9    10    20    1
    10    11    34   ar
    11    12    16    1
    12    13     8    1
    13    14    13    1
    14    15    14    1
    15    16    15    1
    16    17    16    1
    17    18     8    1
    18    19     9   am
    19    20    19    1
    20    21    20    1
    21    22    21    1
    22    23    22    1
    23    24    22    1
    24    25    10   am
    25    26    25    1
    26    27    26    2
    27    28    29   ar
    28    29    30   ar
    29    30    31   ar
    30    31    32   ar
    31    32     7    1
    32    33    27    1
    33    34     1    1
    34    35    34   ar
    35    36    35   ar
    36    37    36   ar
    37    38    11   ar
    38    39     9    1
    39    40    10    1
    40    41    12    1
    41    42    12    1
    42    43    12    1
    43    44    13    1
    44    45    13    1
    45    46    15    1
    46    47    16    1
    47    48    17    1
    48    49    17    1
    49    50    18    1
    50    51    18    1
    51    52    20    1
    52    53    21    1
    53    54    21    1
    54    55    22    1
    55    56    23    1
    56    57    23    1
    57    58    23    1
    58    59    24    1
    59    60    24    1
    60    61    24    1
    61    62    27    1
    62    63    28    1
    63    64    29    1
    64    65    30    1
    65    66    31    1
    66    67    35    1
    67    68    36    1
    68    69    37    1
    69    70    38    1
    70    17    18    1
    71    28    33   ar
    72    32    33   ar
    73    37    38   ar
@<TRIPOS>SUBSTRUCTURE
     1 RES1        1 GROUP             0 ****  ****    0  
@<TRIPOS>CRYSIN
   10.5605   14.7602   17.5160   90.0000   90.0000   90.0000    19     1
