@<TRIPOS>MOLECULE
RIGPEC
    78    79     1     0     0
SMALL
NO_CHARGES
****
Generated from the CSD

@<TRIPOS>ATOM
     1 O1       8.8072   1.4033   1.8353   O.3       1 RES1   0.0000
     2 O2      10.2645   1.3790   0.1220   O.2       1 RES1   0.0000
     3 O3      12.9012   3.0815   3.7113   O.2       1 RES1   0.0000
     4 O4      14.6174   2.4304   0.6101   O.3       1 RES1   0.0000
     5 O5      14.0120   5.9649   4.1638   O.2       1 RES1   0.0000
     6 O6      12.8779   6.9597   2.4962   O.3       1 RES1   0.0000
     7 O7       8.2524  10.5225   0.5237   O.3       1 RES1   0.0000
     8 N1      12.0999   2.6771   1.6370   N.am      1 RES1   0.0000
     9 N2      14.2668   5.3219   1.9878   N.am      1 RES1   0.0000
    10 C1       5.5130   0.5662   1.0575   C.ar      1 RES1   0.0000
    11 C2       4.3844   1.0676   0.4372   C.ar      1 RES1   0.0000
    12 C3       4.4871   1.9088  -0.6253   C.ar      1 RES1   0.0000
    13 C4       5.7308   2.2646  -1.0829   C.ar      1 RES1   0.0000
    14 C5       6.8512   1.7591  -0.5084   C.ar      1 RES1   0.0000
    15 C6       6.7677   0.9139   0.5796   C.ar      1 RES1   0.0000
    16 C7       7.9922   0.3478   1.2252   C.3       1 RES1   0.0000
    17 C8       9.9166   1.7551   1.2049   C.2       1 RES1   0.0000
    18 C9      10.6919   2.7621   2.0387   C.3       1 RES1   0.0000
    19 C10     10.2015   4.2260   1.9014   C.3       1 RES1   0.0000
    20 C11      8.7305   4.3877   2.2929   C.3       1 RES1   0.0000
    21 C12     10.4440   4.8285   0.5389   C.3       1 RES1   0.0000
    22 C13     13.0847   2.8551   2.5166   C.2       1 RES1   0.0000
    23 C14     14.5133   2.8389   1.9421   C.3       1 RES1   0.0000
    24 C15     15.1763   4.2219   2.2624   C.3       1 RES1   0.0000
    25 C16     16.4939   4.3797   1.4794   C.3       1 RES1   0.0000
    26 C17     17.3103   5.5605   1.9167   C.3       1 RES1   0.0000
    27 C18     18.4800   5.7546   0.8846   C.3       1 RES1   0.0000
    28 C19     19.2977   6.8182   1.0321   C.3       1 RES1   0.0000
    29 C20     20.3127   6.9759  -0.0966   C.3       1 RES1   0.0000
    30 C21     13.7545   6.0539   3.0046   C.2       1 RES1   0.0000
    31 C22     12.2903   7.8737   3.4571   C.3       1 RES1   0.0000
    32 C23     11.2315   8.6339   2.7098   C.ar      1 RES1   0.0000
    33 C24      9.8933   8.3145   2.8623   C.ar      1 RES1   0.0000
    34 C25      8.9400   8.9736   2.0895   C.ar      1 RES1   0.0000
    35 C26      9.2866   9.9604   1.2100   C.ar      1 RES1   0.0000
    36 C27     10.6028  10.2920   1.0880   C.ar      1 RES1   0.0000
    37 C28     11.5630   9.6288   1.8150   C.ar      1 RES1   0.0000
    38 C29      8.5990  11.5335  -0.4169   C.3       1 RES1   0.0000
    39 H1       5.4377   0.0000   1.8201   H         1 RES1   0.0000
    40 H2       3.5338   0.8088   0.7779   H         1 RES1   0.0000
    41 H3       3.6982   2.2646  -1.0422   H         1 RES1   0.0000
    42 H4       5.8075   2.8712  -1.8252   H         1 RES1   0.0000
    43 H5       7.6977   1.9816  -0.8439   H         1 RES1   0.0000
    44 H6       7.7251  -0.2426   1.8963   H         1 RES1   0.0000
    45 H7       8.5058  -0.0809   0.5694   H         1 RES1   0.0000
    46 H8      10.6289   2.5073   2.9691   H         1 RES1   0.0000
    47 H9      10.7111   4.7315   2.5217   H         1 RES1   0.0000
    48 H10      8.6017   4.0844   3.1724   H         1 RES1   0.0000
    49 H11      8.1908   3.9227   1.6828   H         1 RES1   0.0000
    50 H12      8.5058   5.2976   2.2471   H         1 RES1   0.0000
    51 H13      9.9440   4.3271  -0.1068   H         1 RES1   0.0000
    52 H14     10.1495   5.7020   0.5389   H         1 RES1   0.0000
    53 H15     11.3548   4.7719   0.3254   H         1 RES1   0.0000
    54 H16     12.2725   2.4264   0.7067   H         1 RES1   0.0000
    55 H17     14.9845   2.1838   2.4352   H         1 RES1   0.0000
    56 H18     15.3817   4.2462   3.1877   H         1 RES1   0.0000
    57 H19     16.2857   4.4484   0.5542   H         1 RES1   0.0000
    58 H20     17.0117   3.5992   1.5964   H         1 RES1   0.0000
    59 H21     17.6554   5.4190   2.7759   H         1 RES1   0.0000
    60 H22     16.7651   6.3491   1.9116   H         1 RES1   0.0000
    61 H23     18.1211   5.8234   0.0203   H         1 RES1   0.0000
    62 H24     19.0525   4.9741   0.9558   H         1 RES1   0.0000
    63 H25     19.7648   6.7535   1.8506   H         1 RES1   0.0000
    64 H26     18.7512   7.6027   1.0575   H         1 RES1   0.0000
    65 H27     19.8470   7.0770  -0.9304   H         1 RES1   0.0000
    66 H28     20.8468   7.7645   0.0559   H         1 RES1   0.0000
    67 H29     20.8605   6.2278  -0.1474   H         1 RES1   0.0000
    68 H30     14.1079   5.6616   0.9914   H         1 RES1   0.0000
    69 H31     11.9027   7.3601   4.1790   H         1 RES1   0.0000
    70 H32     12.9437   8.4520   3.7977   H         1 RES1   0.0000
    71 H33      9.6290   7.6432   3.4927   H         1 RES1   0.0000
    72 H34      8.0264   8.7350   2.2065   H         1 RES1   0.0000
    73 H35     10.8754  10.9592   0.4677   H         1 RES1   0.0000
    74 H36     12.4917   9.8269   1.6421   H         1 RES1   0.0000
    75 H37      9.1907  11.1614  -1.0727   H         1 RES1   0.0000
    76 H38      7.8073  11.8489  -0.8541   H         1 RES1   0.0000
    77 H39      9.0263  12.2533   0.0254   H         1 RES1   0.0000
    78 H40     14.2586   3.2352   0.0915   H         1 RES1   0.0000
@<TRIPOS>BOND
     1     1    16    1
     2     2    17    2
     3     3    22    2
     4     4    23    1
     5     5    30    2
     6     6    30    1
     7     7    35    1
     8     8    18    1
     9     9    24    1
    10    10    11   ar
    11    11    12   ar
    12    12    13   ar
    13    13    14   ar
    14    14    15   ar
    15    15    10   ar
    16    16    15    1
    17    17     1    1
    18    18    17    1
    19    19    18    1
    20    20    19    1
    21    21    19    1
    22    22     8   am
    23    23    22    1
    24    24    23    1
    25    25    24    1
    26    26    25    1
    27    27    26    1
    28    28    27    1
    29    29    28    1
    30    30     9   am
    31    31     6    1
    32    32    31    1
    33    33    32   ar
    34    34    33   ar
    35    35    34   ar
    36    36    35   ar
    37    37    32   ar
    38    38     7    1
    39    39    10    1
    40    40    11    1
    41    41    12    1
    42    42    13    1
    43    43    14    1
    44    44    16    1
    45    45    16    1
    46    46    18    1
    47    47    19    1
    48    48    20    1
    49    49    20    1
    50    50    20    1
    51    51    21    1
    52    52    21    1
    53    53    21    1
    54    54     8    1
    55    55    23    1
    56    56    24    1
    57    57    25    1
    58    58    25    1
    59    59    26    1
    60    60    26    1
    61    61    27    1
    62    62    27    1
    63    63    28    1
    64    64    28    1
    65    65    29    1
    66    66    29    1
    67    67    29    1
    68    68     9    1
    69    69    31    1
    70    70    31    1
    71    71    33    1
    72    72    34    1
    73    73    36    1
    74    74    37    1
    75    75    38    1
    76    76    38    1
    77    77    38    1
    78    78     4    1
    79    36    37   ar
@<TRIPOS>SUBSTRUCTURE
     1 RES1        1 GROUP             0 ****  ****    0  
@<TRIPOS>CRYSIN
   13.6970   40.4400    5.0840   90.0000   90.0000   90.0000    19     1
