@<TRIPOS>MOLECULE
02
    14    14     1     0     0
SMALL
NO_CHARGES
****
Generated from the CSD

@<TRIPOS>ATOM
     1 C1       5.5130   0.5662   1.0575   C.ar      1 RES2   0.0000
     2 C2       4.3844   1.0676   0.4372   C.ar      1 RES2   0.0000
     3 C3       4.4871   1.9088  -0.6253   C.ar      1 RES2   0.0000
     4 C4       5.7308   2.2646  -1.0829   C.ar      1 RES2   0.0000
     5 C5       6.8512   1.7591  -0.5084   C.ar      1 RES2   0.0000
     6 C6       6.7677   0.9139   0.5796   C.ar      1 RES2   0.0000
     7 C7       7.9922   0.3478   1.2252   C.3       1 RES2   0.0000
     8 H1       5.4377   0.0000   1.8201   H         1 RES2   0.0000
     9 H2       3.5338   0.8088   0.7779   H         1 RES2   0.0000
    10 H3       3.6982   2.2646  -1.0422   H         1 RES2   0.0000
    11 H4       5.8075   2.8712  -1.8252   H         1 RES2   0.0000
    12 H5       7.6977   1.9816  -0.8439   H         1 RES2   0.0000
    13 H6       7.7251  -0.2426   1.8963   H         1 RES2   0.0000
    14 H7       8.5058  -0.0809   0.5694   H         1 RES2   0.0000
@<TRIPOS>BOND
     1     1     2   ar
     2     2     3   ar
     3     3     4   ar
     4     4     5   ar
     5     5     6   ar
     6     6     1   ar
     7     7     6    1
     8     8     1    1
     9     9     2    1
    10    10     3    1
    11    11     4    1
    12    12     5    1
    13    13     7    1
    14    14     7    1
@<TRIPOS>SUBSTRUCTURE
     1 RES2        1 GROUP             0 ****  ****    0  
