@<TRIPOS>MOLECULE
01
    18    18     1     0     0
SMALL
NO_CHARGES
****
Generated from the CSD

@<TRIPOS>ATOM
     1 O7       8.2524  10.5225   0.5237   O.3       1 RES1   0.0000
     2 C22     12.2903   7.8737   3.4571   C.3       1 RES1   0.0000
     3 C23     11.2315   8.6339   2.7098   C.ar      1 RES1   0.0000
     4 C24      9.8933   8.3145   2.8623   C.ar      1 RES1   0.0000
     5 C25      8.9400   8.9736   2.0895   C.ar      1 RES1   0.0000
     6 C26      9.2866   9.9604   1.2100   C.ar      1 RES1   0.0000
     7 C27     10.6028  10.2920   1.0880   C.ar      1 RES1   0.0000
     8 C28     11.5630   9.6288   1.8150   C.ar      1 RES1   0.0000
     9 C29      8.5990  11.5335  -0.4169   C.3       1 RES1   0.0000
    10 H31     11.9027   7.3601   4.1790   H         1 RES1   0.0000
    11 H32     12.9437   8.4520   3.7977   H         1 RES1   0.0000
    12 H33      9.6290   7.6432   3.4927   H         1 RES1   0.0000
    13 H34      8.0264   8.7350   2.2065   H         1 RES1   0.0000
    14 H35     10.8754  10.9592   0.4677   H         1 RES1   0.0000
    15 H36     12.4917   9.8269   1.6421   H         1 RES1   0.0000
    16 H37      9.1907  11.1614  -1.0727   H         1 RES1   0.0000
    17 H38      7.8073  11.8489  -0.8541   H         1 RES1   0.0000
    18 H39      9.0263  12.2533   0.0254   H         1 RES1   0.0000
@<TRIPOS>BOND
     1     1     6    1
     2     3     2    1
     3     4     3   ar
     4     5     4   ar
     5     6     5   ar
     6     7     6   ar
     7     8     3   ar
     8     9     1    1
     9    10     2    1
    10    11     2    1
    11    12     4    1
    12    13     5    1
    13    14     7    1
    14    15     8    1
    15    16     9    1
    16    17     9    1
    17    18     9    1
    18     7     8   ar
@<TRIPOS>SUBSTRUCTURE
     1 RES1        1 GROUP             0 ****  ****    0  
