@<TRIPOS>MOLECULE
01
    28    28     1     0     0
SMALL
NO_CHARGES
****
Generated from the CSD

@<TRIPOS>ATOM
     1 C1       0.6799   1.8913  20.2649   C.3       1 RES1   0.0000
     2 C2       0.0676   1.0702  21.4025   C.3       1 RES1   0.0000
     3 H1      -0.8113   0.7793  21.1477   H         1 RES1   0.0000
     4 H2       0.0094   1.6117  22.1920   H         1 RES1   0.0000
     5 H3       0.6198   0.3053  21.5775   H         1 RES1   0.0000
     6 C3      -0.2385   3.0531  19.9149   C.3       1 RES1   0.0000
     7 H4      -1.1071   2.7156  19.6834   H         1 RES1   0.0000
     8 H5       0.1258   3.5351  19.1701   H         1 RES1   0.0000
     9 H6      -0.3146   3.6396  20.6713   H         1 RES1   0.0000
    10 C4       2.0555   2.3637  20.6499   C.3       1 RES1   0.0000
    11 H7       2.4283   2.8779  19.9304   H         1 RES1   0.0000
    12 H8       2.6171   1.6037  20.8249   H         1 RES1   0.0000
    13 H9       1.9983   2.9068  21.4375   H         1 RES1   0.0000
    14 O1       0.7343   0.9400  19.1642   O.3       1 RES1   0.0000
    15 C5       1.2996   1.2582  17.9838   C.2       1 RES1   0.0000
    16 O2       1.7889   2.3412  17.7310   O.2       1 RES1   0.0000
    17 N1       1.2273   0.2426  17.1321   N.am      1 RES1   0.0000
    18 C6       0.5484  -1.0155  17.4005   C.3       1 RES1   0.0000
    19 H10     -0.3775  -0.8549  17.6785   H         1 RES1   0.0000
    20 C7       0.5906  -1.7001  16.0101   C.3       1 RES1   0.0000
    21 H11      0.7090  -2.6578  16.1015   H         1 RES1   0.0000
    22 H12     -0.2282  -1.5297  15.5181   H         1 RES1   0.0000
    23 C8       1.7804  -1.0750  15.3100   C.3       1 RES1   0.0000
    24 H13      2.6011  -1.5330  15.5511   H         1 RES1   0.0000
    25 H14      1.6705  -1.1120  14.3474   H         1 RES1   0.0000
    26 C9       1.8039   0.3342  15.7864   C.3       1 RES1   0.0000
    27 H15      2.7100   0.6781  15.8156   H         1 RES1   0.0000
    28 H16      1.2668   0.9047  15.2147   H         1 RES1   0.0000
@<TRIPOS>BOND
     1     1     2    1
     2     2     3    1
     3     4     2    1
     4     5     2    1
     5     6     1    1
     6     7     6    1
     7     8     6    1
     8     9     6    1
     9    10     1    1
    10    11    10    1
    11    12    10    1
    12    13    10    1
    13    14     1    1
    14    15    14    1
    15    16    15    2
    16    17    15   am
    17    18    17    1
    18    19    18    1
    19    20    18    1
    20    21    20    1
    21    22    20    1
    22    23    20    1
    23    24    23    1
    24    25    23    1
    25    26    17    1
    26    27    26    1
    27    28    26    1
    28    23    26    1
@<TRIPOS>SUBSTRUCTURE
     1 RES1        1 GROUP             0 ****  ****    0  
