@<TRIPOS>MOLECULE
ROCPAB
    76    77     1     0     0
SMALL
NO_CHARGES
****
Generated from the CSD

@<TRIPOS>ATOM
     1 C1       0.6799   1.8913  20.2649   C.3       1 RES1   0.0000
     2 C2       0.0676   1.0702  21.4025   C.3       1 RES1   0.0000
     3 H1      -0.8113   0.7793  21.1477   H         1 RES1   0.0000
     4 H2       0.0094   1.6117  22.1920   H         1 RES1   0.0000
     5 H3       0.6198   0.3053  21.5775   H         1 RES1   0.0000
     6 C3      -0.2385   3.0531  19.9149   C.3       1 RES1   0.0000
     7 H4      -1.1071   2.7156  19.6834   H         1 RES1   0.0000
     8 H5       0.1258   3.5351  19.1701   H         1 RES1   0.0000
     9 H6      -0.3146   3.6396  20.6713   H         1 RES1   0.0000
    10 C4       2.0555   2.3637  20.6499   C.3       1 RES1   0.0000
    11 H7       2.4283   2.8779  19.9304   H         1 RES1   0.0000
    12 H8       2.6171   1.6037  20.8249   H         1 RES1   0.0000
    13 H9       1.9983   2.9068  21.4375   H         1 RES1   0.0000
    14 O1       0.7343   0.9400  19.1642   O.3       1 RES1   0.0000
    15 C5       1.2996   1.2582  17.9838   C.2       1 RES1   0.0000
    16 O2       1.7889   2.3412  17.7310   O.2       1 RES1   0.0000
    17 N1       1.2273   0.2426  17.1321   N.am      1 RES1   0.0000
    18 C6       0.5484  -1.0155  17.4005   C.3       1 RES1   0.0000
    19 H10     -0.3775  -0.8549  17.6785   H         1 RES1   0.0000
    20 C7       0.5906  -1.7001  16.0101   C.3       1 RES1   0.0000
    21 H11      0.7090  -2.6578  16.1015   H         1 RES1   0.0000
    22 H12     -0.2282  -1.5297  15.5181   H         1 RES1   0.0000
    23 C8       1.7804  -1.0750  15.3100   C.3       1 RES1   0.0000
    24 H13      2.6011  -1.5330  15.5511   H         1 RES1   0.0000
    25 H14      1.6705  -1.1120  14.3474   H         1 RES1   0.0000
    26 C9       1.8039   0.3342  15.7864   C.3       1 RES1   0.0000
    27 H15      2.7100   0.6781  15.8156   H         1 RES1   0.0000
    28 H16      1.2668   0.9047  15.2147   H         1 RES1   0.0000
    29 C10      1.2752  -1.8431  18.4292   C.2       1 RES1   0.0000
    30 O3       2.4884  -1.9122  18.4807   O.2       1 RES1   0.0000
    31 N2       0.4573  -2.5598  19.2187   N.am      1 RES1   0.0000
    32 H17     -0.3906  -2.4585  19.1156   H         1 RES1   0.0000
    33 C11      0.9146  -3.4982  20.2357   C.3       1 RES1   0.0000
    34 H18      1.8921  -3.5528  20.1968   H         1 RES1   0.0000
    35 C12      0.5071  -2.9952  21.6242   C.3       1 RES1   0.0000
    36 H19     -0.4592  -3.0241  21.6981   H         1 RES1   0.0000
    37 H20      0.7832  -2.0697  21.7175   H         1 RES1   0.0000
    38 C13      1.1203  -3.8147  22.7657   C.3       1 RES1   0.0000
    39 H21      0.9700  -4.7628  22.5712   H         1 RES1   0.0000
    40 C14      2.6049  -3.5930  22.8707   C.3       1 RES1   0.0000
    41 H22      3.0218  -3.8163  22.0345   H         1 RES1   0.0000
    42 H23      2.9636  -4.1490  23.5649   H         1 RES1   0.0000
    43 H24      2.7767  -2.6706  23.0768   H         1 RES1   0.0000
    44 C15      0.4179  -3.4869  24.0705   C.3       1 RES1   0.0000
    45 H25     -0.5212  -3.6653  23.9811   H         1 RES1   0.0000
    46 H26      0.5484  -2.5598  24.2805   H         1 RES1   0.0000
    47 H27      0.7822  -4.0284  24.7745   H         1 RES1   0.0000
    48 N3       0.3728  -4.7917  19.9771   N.am      1 RES1   0.0000
    49 H28     -0.4817  -4.8913  19.9849   H         1 RES1   0.0000
    50 C16      1.1597  -5.8796  19.7184   C.2       1 RES1   0.0000
    51 O4       2.3617  -5.8314  19.5648   O.2       1 RES1   0.0000
    52 N4       0.4545  -7.0317  19.6698   N.am      1 RES1   0.0000
    53 H29     -0.3963  -6.9947  19.7904   H         1 RES1   0.0000
    54 C17      1.0592  -8.3204  19.4268   C.3       1 RES1   0.0000
    55 H30      2.0311  -8.2015  19.4618   H         1 RES1   0.0000
    56 C18      0.6742  -9.3215  20.5255   C.3       1 RES1   0.0000
    57 H31     -0.2873  -9.2829  20.6499   H         1 RES1   0.0000
    58 H32      0.8911 -10.2133  20.2143   H         1 RES1   0.0000
    59 C19      1.3306  -9.1110  21.8498   C.ar      1 RES1   0.0000
    60 C20      0.9127  -8.1276  22.6995   C.ar      1 RES1   0.0000
    61 H33      0.2169  -7.5652  22.4448   H         1 RES1   0.0000
    62 C21      1.5062  -7.9589  23.9266   C.ar      1 RES1   0.0000
    63 H34      1.2029  -7.2808  24.4867   H         1 RES1   0.0000
    64 C22      2.5100  -8.7430  24.3389   C.ar      1 RES1   0.0000
    65 H35      2.8988  -8.6209  25.1751   H         1 RES1   0.0000
    66 C23      2.9523  -9.7393  23.4871   C.ar      1 RES1   0.0000
    67 H36      3.6444 -10.3033  23.7477   H         1 RES1   0.0000
    68 C24      2.3598  -9.8903  22.2465   C.ar      1 RES1   0.0000
    69 H37      2.6791 -10.5460  21.6689   H         1 RES1   0.0000
    70 C25      0.7099  -8.8298  18.0500   C.2       1 RES1   0.0000
    71 O5       0.0526  -8.2690  17.2313   O.2       1 RES1   0.0000
    72 O6       1.2226 -10.0334  17.8497   O.3       1 RES1   0.0000
    73 C26      0.9757 -10.6793  16.5779   C.3       1 RES1   0.0000
    74 H38      1.3963 -11.5422  16.5701   H         1 RES1   0.0000
    75 H39      1.3372 -10.1410  15.8700   H         1 RES1   0.0000
    76 H40      0.0300 -10.7838  16.4495   H         1 RES1   0.0000
@<TRIPOS>BOND
     1     1     2    1
     2     2     3    1
     3     4     2    1
     4     5     2    1
     5     6     1    1
     6     7     6    1
     7     8     6    1
     8     9     6    1
     9    10     1    1
    10    11    10    1
    11    12    10    1
    12    13    10    1
    13    14     1    1
    14    15    14    1
    15    16    15    2
    16    17    15   am
    17    18    17    1
    18    19    18    1
    19    20    18    1
    20    21    20    1
    21    22    20    1
    22    23    20    1
    23    24    23    1
    24    25    23    1
    25    26    17    1
    26    27    26    1
    27    28    26    1
    28    29    18    1
    29    30    29    2
    30    31    29   am
    31    32    31    1
    32    33    31    1
    33    34    33    1
    34    35    33    1
    35    36    35    1
    36    37    35    1
    37    38    35    1
    38    39    38    1
    39    40    38    1
    40    41    40    1
    41    42    40    1
    42    43    40    1
    43    44    38    1
    44    45    44    1
    45    46    44    1
    46    47    44    1
    47    48    33    1
    48    49    48    1
    49    50    48   am
    50    51    50    2
    51    52    50   am
    52    53    52    1
    53    54    52    1
    54    55    54    1
    55    56    54    1
    56    57    56    1
    57    58    56    1
    58    59    56    1
    59    60    59   ar
    60    61    60    1
    61    62    60   ar
    62    63    62    1
    63    64    62   ar
    64    65    64    1
    65    66    64   ar
    66    67    66    1
    67    68    59   ar
    68    69    68    1
    69    70    54    1
    70    71    70    2
    71    72    70    1
    72    73    72    1
    73    74    73    1
    74    75    73    1
    75    76    73    1
    76    23    26    1
    77    66    68   ar
@<TRIPOS>SUBSTRUCTURE
     1 RES1        1 GROUP             0 ****  ****    0  
@<TRIPOS>CRYSIN
    9.3903   16.0688   19.4462   90.0000   90.0000   90.0000    19     1
