@<TRIPOS>MOLECULE
02
    23    23     1     0     0
SMALL
NO_CHARGES
****
Generated from the CSD

@<TRIPOS>ATOM
     1 C17      1.0592  -8.3204  19.4268   C.3       1 RES2   0.0000
     2 H30      2.0311  -8.2015  19.4618   H         1 RES2   0.0000
     3 C18      0.6742  -9.3215  20.5255   C.3       1 RES2   0.0000
     4 H31     -0.2873  -9.2829  20.6499   H         1 RES2   0.0000
     5 H32      0.8911 -10.2133  20.2143   H         1 RES2   0.0000
     6 C19      1.3306  -9.1110  21.8498   C.ar      1 RES2   0.0000
     7 C20      0.9127  -8.1276  22.6995   C.ar      1 RES2   0.0000
     8 H33      0.2169  -7.5652  22.4448   H         1 RES2   0.0000
     9 C21      1.5062  -7.9589  23.9266   C.ar      1 RES2   0.0000
    10 H34      1.2029  -7.2808  24.4867   H         1 RES2   0.0000
    11 C22      2.5100  -8.7430  24.3389   C.ar      1 RES2   0.0000
    12 H35      2.8988  -8.6209  25.1751   H         1 RES2   0.0000
    13 C23      2.9523  -9.7393  23.4871   C.ar      1 RES2   0.0000
    14 H36      3.6444 -10.3033  23.7477   H         1 RES2   0.0000
    15 C24      2.3598  -9.8903  22.2465   C.ar      1 RES2   0.0000
    16 H37      2.6791 -10.5460  21.6689   H         1 RES2   0.0000
    17 C25      0.7099  -8.8298  18.0500   C.2       1 RES2   0.0000
    18 O5       0.0526  -8.2690  17.2313   O.2       1 RES2   0.0000
    19 O6       1.2226 -10.0334  17.8497   O.3       1 RES2   0.0000
    20 C26      0.9757 -10.6793  16.5779   C.3       1 RES2   0.0000
    21 H38      1.3963 -11.5422  16.5701   H         1 RES2   0.0000
    22 H39      1.3372 -10.1410  15.8700   H         1 RES2   0.0000
    23 H40      0.0300 -10.7838  16.4495   H         1 RES2   0.0000
@<TRIPOS>BOND
     1     2     1    1
     2     3     1    1
     3     4     3    1
     4     5     3    1
     5     6     3    1
     6     7     6   ar
     7     8     7    1
     8     9     7   ar
     9    10     9    1
    10    11     9   ar
    11    12    11    1
    12    13    11   ar
    13    14    13    1
    14    15     6   ar
    15    16    15    1
    16    17     1    1
    17    18    17    2
    18    19    17    1
    19    20    19    1
    20    21    20    1
    21    22    20    1
    22    23    20    1
    23    13    15   ar
@<TRIPOS>SUBSTRUCTURE
     1 RES2        1 GROUP             0 ****  ****    0  
