@<TRIPOS>MOLECULE
02
    17    17     1     0     0
SMALL
NO_CHARGES
****
Generated from the CSD

@<TRIPOS>ATOM
     1 C21     -1.9581   8.0599   8.3815   C.3       1 RES2   0.0000
     2 C22     -3.0872   9.0451   8.0623   C.3       1 RES2   0.0000
     3 C23     -4.3166   8.8317   8.9154   C.2       1 RES2   0.0000
     4 O4      -4.4974   7.8681   9.6153   O.2       1 RES2   0.0000
     5 O5      -5.2017   9.7904   8.7761   O.3       1 RES2   0.0000
     6 C24     -3.3936   8.7128   6.6015   C.3       1 RES2   0.0000
     7 C25     -3.0951   7.2402   6.4272   C.3       1 RES2   0.0000
     8 C26     -2.3877   6.7644   7.7208   C.3       1 RES2   0.0000
     9 H24     -1.1496   8.3870   7.8990   H         1 RES2   0.0000
    10 H25     -2.7619   9.9746   8.1518   H         1 RES2   0.0000
    11 H26     -4.3426   8.8964   6.4218   H         1 RES2   0.0000
    12 H27     -2.8117   9.2455   6.0054   H         1 RES2   0.0000
    13 H28     -3.9431   6.7683   6.3103   H         1 RES2   0.0000
    14 H29     -2.5140   7.1135   5.6659   H         1 RES2   0.0000
    15 H30     -3.0012   6.2757   8.3352   H         1 RES2   0.0000
    16 H31     -1.6028   6.1981   7.5247   H         1 RES2   0.0000
    17 H35     -5.8807   9.9682   9.2299   H         1 RES2   0.0000
@<TRIPOS>BOND
     1     2     1    1
     2     3     2    1
     3     4     3    2
     4     5     3    1
     5     6     2    1
     6     7     6    1
     7     8     1    1
     8     9     1    1
     9    10     2    1
    10    11     6    1
    11    12     6    1
    12    13     7    1
    13    14     7    1
    14    15     8    1
    15    16     8    1
    16    17     5    1
    17     7     8    1
@<TRIPOS>SUBSTRUCTURE
     1 RES2        1 GROUP             0 ****  ****    0  
