@<TRIPOS>MOLECULE
01
    14    14     1     0     0
SMALL
NO_CHARGES
****
Generated from the CSD

@<TRIPOS>ATOM
     1 C7       4.5692   6.7367  15.1186   C.3       1 RES1   0.0000
     2 C8       3.9257   6.4893  16.4696   C.ar      1 RES1   0.0000
     3 C9       3.6194   5.2155  16.9165   C.ar      1 RES1   0.0000
     4 C10      3.0943   5.0293  18.1768   C.ar      1 RES1   0.0000
     5 C11      2.8622   6.1037  19.0029   C.ar      1 RES1   0.0000
     6 C12      3.1528   7.3682  18.5533   C.ar      1 RES1   0.0000
     7 C13      3.6731   7.5673  17.2913   C.ar      1 RES1   0.0000
     8 H5       5.5380   6.6933  15.2378   H         1 RES1   0.0000
     9 H6       4.3118   7.6229  14.7570   H         1 RES1   0.0000
    10 H7       3.7868   4.4760  16.3333   H         1 RES1   0.0000
    11 H8       2.8843   4.1515  18.4871   H         1 RES1   0.0000
    12 H9       2.5274   5.9563  19.8677   H         1 RES1   0.0000
    13 H10      2.9980   8.0987  19.1266   H         1 RES1   0.0000
    14 H11      3.8697   8.4477  16.9703   H         1 RES1   0.0000
@<TRIPOS>BOND
     1     1     2    1
     2     2     3   ar
     3     3     4   ar
     4     4     5   ar
     5     5     6   ar
     6     6     7   ar
     7     7     2   ar
     8     8     1    1
     9     9     1    1
    10    10     3    1
    11    11     4    1
    12    12     5    1
    13    13     6    1
    14    14     7    1
@<TRIPOS>SUBSTRUCTURE
     1 RES1        1 GROUP             0 ****  ****    0  
