@<TRIPOS>MOLECULE
RODPAD
    70    73     1     0     0
SMALL
NO_CHARGES
****
Generated from the CSD

@<TRIPOS>ATOM
     1 C1      -0.1777   8.1421  11.7166   C.3       1 RES1   0.0000
     2 C2       0.2779   6.6967  11.9982   C.3       1 RES1   0.0000
     3 N1       1.3194   6.2644  11.0630   N.am      1 RES1   0.0000
     4 C3       1.5365   4.9660  10.8266   C.2       1 RES1   0.0000
     5 C4       2.7674   4.6270  10.0025   C.3       1 RES1   0.0000
     6 C5       4.1176   4.7669  10.7636   C.3       1 RES1   0.0000
     7 N2       3.9936   4.8151  12.2178   N.am      1 RES1   0.0000
     8 C6       4.3568   5.8964  12.9088   C.2       1 RES1   0.0000
     9 O1       4.1784   5.6782  14.2323   O.3       1 RES1   0.0000
    10 C7       4.5692   6.7367  15.1186   C.3       1 RES1   0.0000
    11 C8       3.9257   6.4893  16.4696   C.ar      1 RES1   0.0000
    12 C9       3.6194   5.2155  16.9165   C.ar      1 RES1   0.0000
    13 C10      3.0943   5.0293  18.1768   C.ar      1 RES1   0.0000
    14 C11      2.8622   6.1037  19.0029   C.ar      1 RES1   0.0000
    15 C12      3.1528   7.3682  18.5533   C.ar      1 RES1   0.0000
    16 C13      3.6731   7.5673  17.2913   C.ar      1 RES1   0.0000
    17 O2       4.7643   6.9461  12.4582   O.2       1 RES1   0.0000
    18 C14      4.9632   3.5671  10.3101   C.3       1 RES1   0.0000
    19 C15      4.2629   2.9762   9.1286   C.3       1 RES1   0.0000
    20 C16      2.8030   3.1857   9.4686   C.3       1 RES1   0.0000
    21 O3       0.7951   4.0957  11.2685   O.2       1 RES1   0.0000
    22 C17      0.8062   6.8187  13.4275   C.3       1 RES1   0.0000
    23 C18      1.4954   8.1724  13.4761   C.3       1 RES1   0.0000
    24 C19      0.8930   9.0169  12.3662   C.3       1 RES1   0.0000
    25 C20     -0.4469   8.4202  10.2590   C.2       1 RES1   0.0000
    26 N3      -1.5997   7.9451   9.7836   N.am      1 RES1   0.0000
    27 C21     -1.9581   8.0599   8.3815   C.3       1 RES1   0.0000
    28 C22     -3.0872   9.0451   8.0623   C.3       1 RES1   0.0000
    29 C23     -4.3166   8.8317   8.9154   C.2       1 RES1   0.0000
    30 O4      -4.4974   7.8681   9.6153   O.2       1 RES1   0.0000
    31 O5      -5.2017   9.7904   8.7761   O.3       1 RES1   0.0000
    32 C24     -3.3936   8.7128   6.6015   C.3       1 RES1   0.0000
    33 C25     -3.0951   7.2402   6.4272   C.3       1 RES1   0.0000
    34 C26     -2.3877   6.7644   7.7208   C.3       1 RES1   0.0000
    35 O6       0.3474   9.0373   9.5350   O.2       1 RES1   0.0000
    36 H1      -1.0485   8.2810  12.2091   H         1 RES1   0.0000
    37 H2      -0.5045   6.0766  11.9166   H         1 RES1   0.0000
    38 H3       2.8140   5.2672   9.2349   H         1 RES1   0.0000
    39 H4       4.5598   5.6202  10.4766   H         1 RES1   0.0000
    40 H5       5.5380   6.6933  15.2378   H         1 RES1   0.0000
    41 H6       4.3118   7.6229  14.7570   H         1 RES1   0.0000
    42 H7       3.7868   4.4760  16.3333   H         1 RES1   0.0000
    43 H8       2.8843   4.1515  18.4871   H         1 RES1   0.0000
    44 H9       2.5274   5.9563  19.8677   H         1 RES1   0.0000
    45 H10      2.9980   8.0987  19.1266   H         1 RES1   0.0000
    46 H11      3.8697   8.4477  16.9703   H         1 RES1   0.0000
    47 H12      5.0067   2.9232  11.0665   H         1 RES1   0.0000
    48 H13      5.8610   3.8580  10.0429   H         1 RES1   0.0000
    49 H14      4.4745   2.0285   9.0317   H         1 RES1   0.0000
    50 H15      4.5021   3.4624   8.2881   H         1 RES1   0.0000
    51 H16      2.5495   2.5677  10.1842   H         1 RES1   0.0000
    52 H17      2.2258   3.0978   8.6797   H         1 RES1   0.0000
    53 H18      0.0632   6.7916  14.0680   H         1 RES1   0.0000
    54 H19      1.4481   6.0740  13.5871   H         1 RES1   0.0000
    55 H20      1.3652   8.6287  14.3332   H         1 RES1   0.0000
    56 H21      2.4485   8.0482  13.3244   H         1 RES1   0.0000
    57 H22      0.5401   9.8415  12.7345   H         1 RES1   0.0000
    58 H23      1.5941   9.2325  11.6886   H         1 RES1   0.0000
    59 H24     -1.1496   8.3870   7.8990   H         1 RES1   0.0000
    60 H25     -2.7619   9.9746   8.1518   H         1 RES1   0.0000
    61 H26     -4.3426   8.8964   6.4218   H         1 RES1   0.0000
    62 H27     -2.8117   9.2455   6.0054   H         1 RES1   0.0000
    63 H28     -3.9431   6.7683   6.3103   H         1 RES1   0.0000
    64 H29     -2.5140   7.1135   5.6659   H         1 RES1   0.0000
    65 H30     -3.0012   6.2757   8.3352   H         1 RES1   0.0000
    66 H31     -1.6028   6.1981   7.5247   H         1 RES1   0.0000
    67 H32      1.8831   6.8627  10.7790   H         1 RES1   0.0000
    68 H33     -2.1784   7.6216  10.3428   H         1 RES1   0.0000
    69 H34      3.7497   4.0804  12.6428   H         1 RES1   0.0000
    70 H35     -5.8807   9.9682   9.2299   H         1 RES1   0.0000
@<TRIPOS>BOND
     1     1     2    1
     2     2     3    1
     3     3     4   am
     4     4     5    1
     5     5     6    1
     6     6     7    1
     7     7     8   am
     8     8     9    1
     9     9    10    1
    10    10    11    1
    11    11    12   ar
    12    12    13   ar
    13    13    14   ar
    14    14    15   ar
    15    15    16   ar
    16    16    11   ar
    17    17     8    2
    18    18     6    1
    19    19    18    1
    20    20     5    1
    21    21     4    2
    22    22     2    1
    23    23    22    1
    24    24     1    1
    25    25     1    1
    26    26    25   am
    27    27    26    1
    28    28    27    1
    29    29    28    1
    30    30    29    2
    31    31    29    1
    32    32    28    1
    33    33    32    1
    34    34    27    1
    35    35    25    2
    36    36     1    1
    37    37     2    1
    38    38     5    1
    39    39     6    1
    40    40    10    1
    41    41    10    1
    42    42    12    1
    43    43    13    1
    44    44    14    1
    45    45    15    1
    46    46    16    1
    47    47    18    1
    48    48    18    1
    49    49    19    1
    50    50    19    1
    51    51    20    1
    52    52    20    1
    53    53    22    1
    54    54    22    1
    55    55    23    1
    56    56    23    1
    57    57    24    1
    58    58    24    1
    59    59    27    1
    60    60    28    1
    61    61    32    1
    62    62    32    1
    63    63    33    1
    64    64    33    1
    65    65    34    1
    66    66    34    1
    67    67     3    1
    68    68    26    1
    69    69     7    1
    70    70    31    1
    71    19    20    1
    72    23    24    1
    73    33    34    1
@<TRIPOS>SUBSTRUCTURE
     1 RES1        1 GROUP             0 ****  ****    0  
@<TRIPOS>CRYSIN
    7.8957   12.9289   24.7850   90.0000   90.0000   90.0000    19     1
