@<TRIPOS>MOLECULE
02
    16    16     1     0     0
SMALL
NO_CHARGES
****
Generated from the CSD

@<TRIPOS>ATOM
     1 N1       9.8872   1.9145   6.9654   N.2       1 RES2   0.0000
     2 C15     10.1597   1.3062   8.2480   C.ar      1 RES2   0.0000
     3 C16      9.4881   1.7869   9.3495   C.ar      1 RES2   0.0000
     4 C17      9.6453   1.1553  10.5776   C.ar      1 RES2   0.0000
     5 C18     10.4679   0.0630  10.6895   C.ar      1 RES2   0.0000
     6 C19     11.1496  -0.4078   9.5967   C.ar      1 RES2   0.0000
     7 C20     10.9895   0.2122   8.3531   C.ar      1 RES2   0.0000
     8 C21      8.7262   1.3128   6.2852   C.3       1 RES2   0.0000
     9 H9       8.9581   2.6024   9.2152   H         1 RES2   0.0000
    10 H10      9.0861   1.4753  11.3950   H         1 RES2   0.0000
    11 H11     10.5785  -0.3812  11.5993   H         1 RES2   0.0000
    12 H12     11.7669  -1.2100   9.6531   H         1 RES2   0.0000
    13 H13     11.4437  -0.0829   7.5415   H         1 RES2   0.0000
    14 H16      7.9135   1.4587   6.8409   H         1 RES2   0.0000
    15 H17      8.5385   1.7571   5.3812   H         1 RES2   0.0000
    16 H18      8.8851   0.3315   6.2084   H         1 RES2   0.0000
@<TRIPOS>BOND
     1     2     1    1
     2     3     2   ar
     3     4     3   ar
     4     5     4   ar
     5     6     5   ar
     6     7     2   ar
     7     8     1    1
     8     9     3    1
     9    10     4    1
    10    11     5    1
    11    12     6    1
    12    13     7    1
    13    14     8    1
    14    15     8    1
    15    16     8    1
    16     6     7   ar
@<TRIPOS>SUBSTRUCTURE
     1 RES2        1 GROUP             0 ****  ****    0  
