@<TRIPOS>MOLECULE
01
    15    15     1     0     0
SMALL
NO_CHARGES
****
Generated from the CSD

@<TRIPOS>ATOM
     1 O5       5.8780   3.2981   1.6173   O.3       1 RES1   0.0000
     2 C8       7.0800   3.7893   0.9702   C.3       1 RES1   0.0000
     3 C9       7.2842   5.2413   1.2806   C.ar      1 RES1   0.0000
     4 C10      8.5739   5.7751   1.2572   C.ar      1 RES1   0.0000
     5 C11      8.7742   7.1260   1.4606   C.ar      1 RES1   0.0000
     6 C12      7.7083   7.9664   1.7078   C.ar      1 RES1   0.0000
     7 C13      6.4296   7.4393   1.7594   C.ar      1 RES1   0.0000
     8 C14      6.2154   6.0834   1.5531   C.ar      1 RES1   0.0000
     9 H4       9.3436   5.1220   1.1093   H         1 RES1   0.0000
    10 H5       9.6595   7.5089   1.4596   H         1 RES1   0.0000
    11 H6       7.8420   8.9842   1.8781   H         1 RES1   0.0000
    12 H7       5.6724   8.0062   1.9754   H         1 RES1   0.0000
    13 H8       5.3575   5.7021   1.6056   H         1 RES1   0.0000
    14 H14      6.9490   3.5970   0.0097   H         1 RES1   0.0000
    15 H15      7.8336   3.2323   1.2942   H         1 RES1   0.0000
@<TRIPOS>BOND
     1     2     1    1
     2     3     2    1
     3     4     3   ar
     4     5     4   ar
     5     6     5   ar
     6     7     6   ar
     7     8     3   ar
     8     9     4    1
     9    10     5    1
    10    11     6    1
    11    12     7    1
    12    13     8    1
    13    14     2    1
    14    15     2    1
    15     7     8   ar
@<TRIPOS>SUBSTRUCTURE
     1 RES1        1 GROUP             0 ****  ****    0  
