@<TRIPOS>MOLECULE
ROPVUN
    77    79     1     0     0
SMALL
NO_CHARGES
****
Generated from the CSD

@<TRIPOS>ATOM
     1 O1      11.5903   3.3387   7.2788   O.2       1 RES1   0.0000
     2 O2       8.8851   5.0931   7.4773   O.2       1 RES1   0.0000
     3 O3       5.9933   2.9621   6.9323   O.2       1 RES1   0.0000
     4 O4       7.0866   2.6391   3.4292   O.2       1 RES1   0.0000
     5 O5       5.8780   3.2981   1.6173   O.3       1 RES1   0.0000
     6 O6       5.4175   8.0493   6.5898   O.3       1 RES1   0.0000
     7 N1       9.8872   1.9145   6.9654   N.am      1 RES1   0.0000
     8 N2       8.7729   4.1937   5.4065   N.am      1 RES1   0.0000
     9 N3       5.9883   4.6595   5.4406   N.am      1 RES1   0.0000
    10 N4       4.8279   3.0135   3.5392   N.am      1 RES1   0.0000
    11 C1      10.5952   3.0152   6.6171   C.2       1 RES1   0.0000
    12 C2      10.2068   3.8224   5.3657   C.3       1 RES1   0.0000
    13 C3       8.2510   4.8800   6.4448   C.2       1 RES1   0.0000
    14 C4       6.8699   5.5364   6.2132   C.3       1 RES1   0.0000
    15 C5       5.6200   3.4263   5.8590   C.2       1 RES1   0.0000
    16 C6       4.6555   2.6455   4.9521   C.3       1 RES1   0.0000
    17 C7       6.0206   2.9522   2.9203   C.2       1 RES1   0.0000
    18 C8       7.0800   3.7893   0.9702   C.3       1 RES1   0.0000
    19 C9       7.2842   5.2413   1.2806   C.ar      1 RES1   0.0000
    20 C10      8.5739   5.7751   1.2572   C.ar      1 RES1   0.0000
    21 C11      8.7742   7.1260   1.4606   C.ar      1 RES1   0.0000
    22 C12      7.7083   7.9664   1.7078   C.ar      1 RES1   0.0000
    23 C13      6.4296   7.4393   1.7594   C.ar      1 RES1   0.0000
    24 C14      6.2154   6.0834   1.5531   C.ar      1 RES1   0.0000
    25 C15     10.1597   1.3062   8.2480   C.ar      1 RES1   0.0000
    26 C16      9.4881   1.7869   9.3495   C.ar      1 RES1   0.0000
    27 C17      9.6453   1.1553  10.5776   C.ar      1 RES1   0.0000
    28 C18     10.4679   0.0630  10.6895   C.ar      1 RES1   0.0000
    29 C19     11.1496  -0.4078   9.5967   C.ar      1 RES1   0.0000
    30 C20     10.9895   0.2122   8.3531   C.ar      1 RES1   0.0000
    31 C21      8.7262   1.3128   6.2852   C.3       1 RES1   0.0000
    32 C22     10.4776   3.0052   4.0928   C.3       1 RES1   0.0000
    33 C23     11.0459   5.1038   5.3044   C.3       1 RES1   0.0000
    34 C24      7.1300   6.8044   5.3676   C.3       1 RES1   0.0000
    35 C25      5.8956   7.6913   5.2898   C.3       1 RES1   0.0000
    36 C26      5.0354   6.8724   7.3138   C.3       1 RES1   0.0000
    37 C27      6.2178   5.9491   7.5376   C.3       1 RES1   0.0000
    38 C28      4.8804   1.1471   5.1506   C.3       1 RES1   0.0000
    39 C29      3.2269   3.0318   5.3433   C.3       1 RES1   0.0000
    40 H1       8.2350   3.9451   4.7584   H         1 RES1   0.0000
    41 H2       5.7242   4.9396   4.6806   H         1 RES1   0.0000
    42 H3       4.2059   3.3981   3.1236   H         1 RES1   0.0000
    43 H4       9.3436   5.1220   1.1093   H         1 RES1   0.0000
    44 H5       9.6595   7.5089   1.4596   H         1 RES1   0.0000
    45 H6       7.8420   8.9842   1.8781   H         1 RES1   0.0000
    46 H7       5.6724   8.0062   1.9754   H         1 RES1   0.0000
    47 H8       5.3575   5.7021   1.6056   H         1 RES1   0.0000
    48 H9       8.9581   2.6024   9.2152   H         1 RES1   0.0000
    49 H10      9.0861   1.4753  11.3950   H         1 RES1   0.0000
    50 H11     10.5785  -0.3812  11.5993   H         1 RES1   0.0000
    51 H12     11.7669  -1.2100   9.6531   H         1 RES1   0.0000
    52 H13     11.4437  -0.0829   7.5415   H         1 RES1   0.0000
    53 H14      6.9490   3.5970   0.0097   H         1 RES1   0.0000
    54 H15      7.8336   3.2323   1.2942   H         1 RES1   0.0000
    55 H16      7.9135   1.4587   6.8409   H         1 RES1   0.0000
    56 H17      8.5385   1.7571   5.3812   H         1 RES1   0.0000
    57 H18      8.8851   0.3315   6.2084   H         1 RES1   0.0000
    58 H19     10.2740   3.4975   3.3085   H         1 RES1   0.0000
    59 H20      9.9449   2.0886   4.0189   H         1 RES1   0.0000
    60 H21     11.4277   2.8013   4.0481   H         1 RES1   0.0000
    61 H22     12.0002   4.8899   5.2839   H         1 RES1   0.0000
    62 H23     10.8281   5.6856   6.1013   H         1 RES1   0.0000
    63 H24     10.8137   5.6358   4.4957   H         1 RES1   0.0000
    64 H25      7.8905   7.2934   5.8094   H         1 RES1   0.0000
    65 H26      7.4119   6.5144   4.4276   H         1 RES1   0.0000
    66 H27      6.1380   8.6195   4.7974   H         1 RES1   0.0000
    67 H28      5.1615   7.2271   4.7682   H         1 RES1   0.0000
    68 H29      4.3170   6.3818   6.8311   H         1 RES1   0.0000
    69 H30      4.6737   7.2106   8.2032   H         1 RES1   0.0000
    70 H31      5.9568   5.1551   8.0183   H         1 RES1   0.0000
    71 H32      6.8975   6.4315   8.0670   H         1 RES1   0.0000
    72 H33      4.2606   0.6796   4.6125   H         1 RES1   0.0000
    73 H34      4.7146   0.8951   6.1500   H         1 RES1   0.0000
    74 H35      5.8873   0.8785   4.9336   H         1 RES1   0.0000
    75 H36      3.1130   3.9617   5.2742   H         1 RES1   0.0000
    76 H37      2.5777   2.5361   4.7584   H         1 RES1   0.0000
    77 H38      3.0653   2.8013   6.3251   H         1 RES1   0.0000
@<TRIPOS>BOND
     1     1    11    2
     2     2    13    2
     3     3    15    2
     4     4    17    2
     5     5    17    1
     6     6    35    1
     7     7    11   am
     8     8    12    1
     9     9    14    1
    10    10    16    1
    11    11    12    1
    12    12    32    1
    13    13     8   am
    14    14    13    1
    15    15     9   am
    16    16    15    1
    17    17    10   am
    18    18     5    1
    19    19    18    1
    20    20    19   ar
    21    21    20   ar
    22    22    21   ar
    23    23    22   ar
    24    24    19   ar
    25    25     7    1
    26    26    25   ar
    27    27    26   ar
    28    28    27   ar
    29    29    28   ar
    30    30    25   ar
    31    31     7    1
    32    32    58    1
    33    33    12    1
    34    34    14    1
    35    35    34    1
    36    36     6    1
    37    37    14    1
    38    38    16    1
    39    39    16    1
    40    40     8    1
    41    41     9    1
    42    42    10    1
    43    43    20    1
    44    44    21    1
    45    45    22    1
    46    46    23    1
    47    47    24    1
    48    48    26    1
    49    49    27    1
    50    50    28    1
    51    51    29    1
    52    52    30    1
    53    53    18    1
    54    54    18    1
    55    55    31    1
    56    56    31    1
    57    57    31    1
    58    59    32    1
    59    60    32    1
    60    61    33    1
    61    62    33    1
    62    63    33    1
    63    64    34    1
    64    65    34    1
    65    66    35    1
    66    67    35    1
    67    68    36    1
    68    69    36    1
    69    70    37    1
    70    71    37    1
    71    72    38    1
    72    73    38    1
    73    74    38    1
    74    75    39    1
    75    76    39    1
    76    77    39    1
    77    23    24   ar
    78    29    30   ar
    79    36    37    1
@<TRIPOS>SUBSTRUCTURE
     1 RES1        1 GROUP             0 ****  ****    0  
@<TRIPOS>CRYSIN
   17.4610   16.5760    9.7410   90.0000   92.6000   90.0000   231     1
