@<TRIPOS>MOLECULE
01
    48    51     1     0     0
SMALL
NO_CHARGES
****
Generated from the CSD

@<TRIPOS>ATOM
     1 S1       0.7268 -13.8390  -3.1609   S.o2      1 RES1   0.0000
     2 O12      1.9888 -13.3478  -2.6998   O.2       1 RES1   0.0000
     3 O13      0.6475 -15.1654  -3.7179   O.2       1 RES1   0.0000
     4 N1      -1.0920 -14.4353   1.5166   N.3       1 RES1   0.0000
     5 N2      -0.4154 -13.7445  -1.9883   N.3       1 RES1   0.0000
     6 C1      -0.1219 -15.6261  -0.4160   C.3       1 RES1   0.0000
     7 H1       0.7485 -15.8267  -0.8196   H         1 RES1   0.0000
     8 C2      -0.6772 -16.9442   0.1238   C.3       1 RES1   0.0000
     9 H2      -0.9164 -17.5236  -0.6156   H         1 RES1   0.0000
    10 H3       0.0030 -17.3931   0.6513   H         1 RES1   0.0000
    11 C3      -1.9047 -16.6863   0.9880   C.3       1 RES1   0.0000
    12 H4      -2.6223 -16.3329   0.4383   H         1 RES1   0.0000
    13 H5      -2.2074 -17.5205   1.3828   H         1 RES1   0.0000
    14 C4      -1.5706 -15.7057   2.0731   C.3       1 RES1   0.0000
    15 H6      -2.3601 -15.5401   2.6128   H         1 RES1   0.0000
    16 H7      -0.8870 -16.0814   2.6485   H         1 RES1   0.0000
    17 C5       0.1309 -14.6232   0.7193   C.3       1 RES1   0.0000
    18 H8       0.8175 -15.0052   1.3070   H         1 RES1   0.0000
    19 C6      -0.8623 -13.4929   2.6262   C.3       1 RES1   0.0000
    20 H9      -0.2076 -13.8750   3.2328   H         1 RES1   0.0000
    21 H10     -1.6902 -13.3783   3.1180   H         1 RES1   0.0000
    22 C7      -0.3783 -12.1557   2.1634   C.3       1 RES1   0.0000
    23 H11     -0.2112 -11.5858   2.9306   H         1 RES1   0.0000
    24 H12     -1.0585 -11.7323   1.6159   H         1 RES1   0.0000
    25 C8       0.8875 -12.3149   1.3650   C.3       1 RES1   0.0000
    26 H13      1.5922 -12.6588   1.9370   H         1 RES1   0.0000
    27 H14      1.1681 -11.4521   1.0215   H         1 RES1   0.0000
    28 C9       0.6534 -13.2924   0.1896   C.3       1 RES1   0.0000
    29 H15      1.5187 -13.4579  -0.2409   H         1 RES1   0.0000
    30 C10     -0.3196 -12.7575  -0.8888   C.3       1 RES1   0.0000
    31 H16     -1.2031 -12.7479  -0.4650   H         1 RES1   0.0000
    32 C11     -0.9876 -15.0116  -1.5055   C.3       1 RES1   0.0000
    33 H17     -1.0651 -15.6325  -2.2459   H         1 RES1   0.0000
    34 H18     -1.8777 -14.8492  -1.1553   H         1 RES1   0.0000
    35 C30      0.1562 -12.7256  -4.4015   C.ar      1 RES1   0.0000
    36 C31     -1.0279 -12.9676  -5.0505   C.ar      1 RES1   0.0000
    37 H44     -1.5287 -13.7254  -4.8498   H         1 RES1   0.0000
    38 C32     -1.4710 -12.0698  -6.0062   C.ar      1 RES1   0.0000
    39 H45     -2.2635 -12.2481  -6.4601   H         1 RES1   0.0000
    40 C33     -0.7687 -10.9204  -6.3040   C.ar      1 RES1   0.0000
    41 C34      0.4163 -10.6848  -5.6260   C.ar      1 RES1   0.0000
    42 H46      0.9008  -9.9112  -5.7977   H         1 RES1   0.0000
    43 C35      0.8880 -11.5954  -4.6926   C.ar      1 RES1   0.0000
    44 H47      1.6981 -11.4426  -4.2621   H         1 RES1   0.0000
    45 C36     -1.2694  -9.9207  -7.3299   C.3       1 RES1   0.0000
    46 H48     -1.2122  -9.0324  -6.9675   H         1 RES1   0.0000
    47 H49     -2.1833 -10.1181  -7.5496   H         1 RES1   0.0000
    48 H50     -0.7306  -9.9780  -8.1228   H         1 RES1   0.0000
@<TRIPOS>BOND
     1     1     2    2
     2     3     1    2
     3     4    14    1
     4     5     1    1
     5     6     7    1
     6     8     6    1
     7     9     8    1
     8    10     8    1
     9    11     8    1
    10    12    11    1
    11    13    11    1
    12    14    11    1
    13    15    14    1
    14    16    14    1
    15    17     4    1
    16    18    17    1
    17    19     4    1
    18    20    19    1
    19    21    19    1
    20    22    19    1
    21    23    22    1
    22    24    22    1
    23    25    22    1
    24    26    25    1
    25    27    25    1
    26    28    17    1
    27    29    28    1
    28    30     5    1
    29    31    30    1
    30    32     5    1
    31    33    32    1
    32    34    32    1
    33    35     1    1
    34    36    35   ar
    35    37    36    1
    36    38    36   ar
    37    39    38    1
    38    40    38   ar
    39    41    40   ar
    40    42    41    1
    41    43    35   ar
    42    44    43    1
    43    45    40    1
    44    46    45    1
    45    47    45    1
    46    48    45    1
    47     6    17    1
    48     6    32    1
    49    25    28    1
    50    28    30    1
    51    41    43   ar
@<TRIPOS>SUBSTRUCTURE
     1 RES1        1 GROUP             0 ****  ****    0  
