@<TRIPOS>MOLECULE
RURYUB
   102   106     1     0     0
SMALL
NO_CHARGES
****
Generated from the CSD

@<TRIPOS>ATOM
     1 S1       0.7268 -13.8390  -3.1609   S.o2      1 RES1   0.0000
     2 O1      -3.1900  -8.9481  -3.2830   O.2       1 RES1   0.0000
     3 O2      -1.5733  -7.5682  -3.9923   O.3       1 RES1   0.0000
     4 O3      -1.8443  -4.8473  -3.3042   O.3       1 RES1   0.0000
     5 O4       0.3668  -5.2596  -3.2596   O.2       1 RES1   0.0000
     6 O5      -2.1783  -3.1962  -5.6572   O.3       1 RES1   0.0000
     7 O6      -3.6271  -2.0695  -4.4004   O.2       1 RES1   0.0000
     8 O7      -4.4044  -4.2437  -7.2073   O.3       1 RES1   0.0000
     9 O8      -3.3838  -3.8397  -9.1365   O.2       1 RES1   0.0000
    10 O9      -2.9220  -7.0814  -8.7250   O.3       1 RES1   0.0000
    11 O10     -4.1015  -7.9977 -10.3041   O.2       1 RES1   0.0000
    12 O11     -2.7399  -7.2024  -5.9137   O.3       1 RES1   0.0000
    13 O12      1.9888 -13.3478  -2.6998   O.2       1 RES1   0.0000
    14 O13      0.6475 -15.1654  -3.7179   O.2       1 RES1   0.0000
    15 N1      -1.0920 -14.4353   1.5166   N.3       1 RES1   0.0000
    16 N2      -0.4154 -13.7445  -1.9883   N.3       1 RES1   0.0000
    17 C1      -0.1219 -15.6261  -0.4160   C.3       1 RES1   0.0000
    18 H1       0.7485 -15.8267  -0.8196   H         1 RES1   0.0000
    19 C2      -0.6772 -16.9442   0.1238   C.3       1 RES1   0.0000
    20 H2      -0.9164 -17.5236  -0.6156   H         1 RES1   0.0000
    21 H3       0.0030 -17.3931   0.6513   H         1 RES1   0.0000
    22 C3      -1.9047 -16.6863   0.9880   C.3       1 RES1   0.0000
    23 H4      -2.6223 -16.3329   0.4383   H         1 RES1   0.0000
    24 H5      -2.2074 -17.5205   1.3828   H         1 RES1   0.0000
    25 C4      -1.5706 -15.7057   2.0731   C.3       1 RES1   0.0000
    26 H6      -2.3601 -15.5401   2.6128   H         1 RES1   0.0000
    27 H7      -0.8870 -16.0814   2.6485   H         1 RES1   0.0000
    28 C5       0.1309 -14.6232   0.7193   C.3       1 RES1   0.0000
    29 H8       0.8175 -15.0052   1.3070   H         1 RES1   0.0000
    30 C6      -0.8623 -13.4929   2.6262   C.3       1 RES1   0.0000
    31 H9      -0.2076 -13.8750   3.2328   H         1 RES1   0.0000
    32 H10     -1.6902 -13.3783   3.1180   H         1 RES1   0.0000
    33 C7      -0.3783 -12.1557   2.1634   C.3       1 RES1   0.0000
    34 H11     -0.2112 -11.5858   2.9306   H         1 RES1   0.0000
    35 H12     -1.0585 -11.7323   1.6159   H         1 RES1   0.0000
    36 C8       0.8875 -12.3149   1.3650   C.3       1 RES1   0.0000
    37 H13      1.5922 -12.6588   1.9370   H         1 RES1   0.0000
    38 H14      1.1681 -11.4521   1.0215   H         1 RES1   0.0000
    39 C9       0.6534 -13.2924   0.1896   C.3       1 RES1   0.0000
    40 H15      1.5187 -13.4579  -0.2409   H         1 RES1   0.0000
    41 C10     -0.3196 -12.7575  -0.8888   C.3       1 RES1   0.0000
    42 H16     -1.2031 -12.7479  -0.4650   H         1 RES1   0.0000
    43 C11     -0.9876 -15.0116  -1.5055   C.3       1 RES1   0.0000
    44 H17     -1.0651 -15.6325  -2.2459   H         1 RES1   0.0000
    45 H18     -1.8777 -14.8492  -1.1553   H         1 RES1   0.0000
    46 C12     -0.0719 -11.3280  -1.3449   C.3       1 RES1   0.0000
    47 H19      0.7020 -11.3184  -1.9292   H         1 RES1   0.0000
    48 H20      0.1380 -10.7867  -0.5687   H         1 RES1   0.0000
    49 C13     -1.2487 -10.7008  -2.0775   C.3       1 RES1   0.0000
    50 H21     -1.4777 -11.2452  -2.8459   H         1 RES1   0.0000
    51 H22     -2.0180 -10.6753  -1.4876   H         1 RES1   0.0000
    52 C14     -0.9286  -9.2999  -2.5392   C.3       1 RES1   0.0000
    53 H23     -0.6986  -8.7586  -1.7664   H         1 RES1   0.0000
    54 H24     -0.1515  -9.3317  -3.1191   H         1 RES1   0.0000
    55 C15     -2.0404  -8.6440  -3.2652   C.2       1 RES1   0.0000
    56 C16     -2.5346  -6.7401  -4.6045   C.3       1 RES1   0.0000
    57 H25     -3.3733  -6.7497  -4.0971   H         1 RES1   0.0000
    58 C17     -1.9488  -5.3392  -4.6469   C.3       1 RES1   0.0000
    59 H26     -1.0676  -5.3520  -5.0762   H         1 RES1   0.0000
    60 C18     -2.8862  -4.4223  -5.3974   C.3       1 RES1   0.0000
    61 H27     -3.6837  -4.2408  -4.8565   H         1 RES1   0.0000
    62 C19     -3.2866  -5.0209  -6.7367   C.3       1 RES1   0.0000
    63 H28     -2.5418  -4.9731  -7.3712   H         1 RES1   0.0000
    64 C20     -3.7595  -6.4567  -6.5783   C.3       1 RES1   0.0000
    65 H29     -4.5633  -6.4631  -6.0185   H         1 RES1   0.0000
    66 C21     -0.6353  -4.8808  -2.7199   C.2       1 RES1   0.0000
    67 C22     -0.7345  -4.4318  -1.2914   C.3       1 RES1   0.0000
    68 H30     -1.0065  -3.5117  -1.2635   H         1 RES1   0.0000
    69 H31      0.1209  -4.5274  -0.8665   H         1 RES1   0.0000
    70 H32     -1.3818  -4.9699  -0.8319   H         1 RES1   0.0000
    71 C23     -2.6210  -2.0536  -5.0717   C.2       1 RES1   0.0000
    72 C24     -1.7487  -0.9106  -5.4219   C.3       1 RES1   0.0000
    73 H33     -0.8415  -1.1143  -5.1877   H         1 RES1   0.0000
    74 H34     -2.0349  -0.1305  -4.9401   H         1 RES1   0.0000
    75 H35     -1.8058  -0.7418  -6.3653   H         1 RES1   0.0000
    76 C25     -4.2811  -3.6486  -8.3994   C.2       1 RES1   0.0000
    77 C26     -5.4582  -2.7763  -8.6949   C.3       1 RES1   0.0000
    78 H36     -6.2566  -3.1965  -8.3659   H         1 RES1   0.0000
    79 H37     -5.5312  -2.6489  -9.6428   H         1 RES1   0.0000
    80 H38     -5.3425  -1.9262  -8.2644   H         1 RES1   0.0000
    81 C27     -4.0711  -7.1444  -7.8619   C.3       1 RES1   0.0000
    82 H39     -4.3039  -8.0709  -7.6912   H         1 RES1   0.0000
    83 H40     -4.8284  -6.7146  -8.2890   H         1 RES1   0.0000
    84 C28     -3.0901  -7.5615  -9.9416   C.2       1 RES1   0.0000
    85 C29     -1.8508  -7.4374 -10.7546   C.3       1 RES1   0.0000
    86 H41     -1.6058  -6.5141 -10.8248   H         1 RES1   0.0000
    87 H42     -2.0068  -7.7971 -11.6322   H         1 RES1   0.0000
    88 H43     -1.1405  -7.9277 -10.3319   H         1 RES1   0.0000
    89 C30      0.1562 -12.7256  -4.4015   C.ar      1 RES1   0.0000
    90 C31     -1.0279 -12.9676  -5.0505   C.ar      1 RES1   0.0000
    91 H44     -1.5287 -13.7254  -4.8498   H         1 RES1   0.0000
    92 C32     -1.4710 -12.0698  -6.0062   C.ar      1 RES1   0.0000
    93 H45     -2.2635 -12.2481  -6.4601   H         1 RES1   0.0000
    94 C33     -0.7687 -10.9204  -6.3040   C.ar      1 RES1   0.0000
    95 C34      0.4163 -10.6848  -5.6260   C.ar      1 RES1   0.0000
    96 H46      0.9008  -9.9112  -5.7977   H         1 RES1   0.0000
    97 C35      0.8880 -11.5954  -4.6926   C.ar      1 RES1   0.0000
    98 H47      1.6981 -11.4426  -4.2621   H         1 RES1   0.0000
    99 C36     -1.2694  -9.9207  -7.3299   C.3       1 RES1   0.0000
   100 H48     -1.2122  -9.0324  -6.9675   H         1 RES1   0.0000
   101 H49     -2.1833 -10.1181  -7.5496   H         1 RES1   0.0000
   102 H50     -0.7306  -9.9780  -8.1228   H         1 RES1   0.0000
@<TRIPOS>BOND
     1     1    13    2
     2     2    55    2
     3     3    55    1
     4     4    58    1
     5     5    66    2
     6     6    60    1
     7     7    71    2
     8     8    62    1
     9     9    76    2
    10    10    81    1
    11    11    84    2
    12    12    56    1
    13    14     1    2
    14    15    25    1
    15    16     1    1
    16    17    18    1
    17    19    17    1
    18    20    19    1
    19    21    19    1
    20    22    19    1
    21    23    22    1
    22    24    22    1
    23    25    22    1
    24    26    25    1
    25    27    25    1
    26    28    15    1
    27    29    28    1
    28    30    15    1
    29    31    30    1
    30    32    30    1
    31    33    30    1
    32    34    33    1
    33    35    33    1
    34    36    33    1
    35    37    36    1
    36    38    36    1
    37    39    28    1
    38    40    39    1
    39    41    16    1
    40    42    41    1
    41    43    16    1
    42    44    43    1
    43    45    43    1
    44    46    41    1
    45    47    46    1
    46    48    46    1
    47    49    46    1
    48    50    49    1
    49    51    49    1
    50    52    49    1
    51    53    52    1
    52    54    52    1
    53    55    52    1
    54    56     3    1
    55    57    56    1
    56    58    56    1
    57    59    58    1
    58    60    58    1
    59    61    60    1
    60    62    60    1
    61    63    62    1
    62    64    12    1
    63    65    64    1
    64    66     4    1
    65    67    66    1
    66    68    67    1
    67    69    67    1
    68    70    67    1
    69    71     6    1
    70    72    71    1
    71    73    72    1
    72    74    72    1
    73    75    72    1
    74    76     8    1
    75    77    76    1
    76    78    77    1
    77    79    77    1
    78    80    77    1
    79    81    64    1
    80    82    81    1
    81    83    81    1
    82    84    10    1
    83    85    84    1
    84    86    85    1
    85    87    85    1
    86    88    85    1
    87    89     1    1
    88    90    89   ar
    89    91    90    1
    90    92    90   ar
    91    93    92    1
    92    94    92   ar
    93    95    94   ar
    94    96    95    1
    95    97    89   ar
    96    98    97    1
    97    99    94    1
    98   100    99    1
    99   101    99    1
   100   102    99    1
   101    17    28    1
   102    17    43    1
   103    36    39    1
   104    39    41    1
   105    62    64    1
   106    95    97   ar
@<TRIPOS>SUBSTRUCTURE
     1 RES1        1 GROUP             0 ****  ****    0  
@<TRIPOS>CRYSIN
    5.5512   31.8380   11.2947   90.0000   99.1310   90.0000     4     1
