@<TRIPOS>MOLECULE
02
    42    42     1     0     0
SMALL
NO_CHARGES
****
Generated from the CSD

@<TRIPOS>ATOM
     1 O3      -1.8443  -4.8473  -3.3042   O.3       1 RES2   0.0000
     2 O4       0.3668  -5.2596  -3.2596   O.2       1 RES2   0.0000
     3 O5      -2.1783  -3.1962  -5.6572   O.3       1 RES2   0.0000
     4 O6      -3.6271  -2.0695  -4.4004   O.2       1 RES2   0.0000
     5 O7      -4.4044  -4.2437  -7.2073   O.3       1 RES2   0.0000
     6 O8      -3.3838  -3.8397  -9.1365   O.2       1 RES2   0.0000
     7 O9      -2.9220  -7.0814  -8.7250   O.3       1 RES2   0.0000
     8 O10     -4.1015  -7.9977 -10.3041   O.2       1 RES2   0.0000
     9 O11     -2.7399  -7.2024  -5.9137   O.3       1 RES2   0.0000
    10 C16     -2.5346  -6.7401  -4.6045   C.3       1 RES2   0.0000
    11 H25     -3.3733  -6.7497  -4.0971   H         1 RES2   0.0000
    12 C17     -1.9488  -5.3392  -4.6469   C.3       1 RES2   0.0000
    13 H26     -1.0676  -5.3520  -5.0762   H         1 RES2   0.0000
    14 C18     -2.8862  -4.4223  -5.3974   C.3       1 RES2   0.0000
    15 H27     -3.6837  -4.2408  -4.8565   H         1 RES2   0.0000
    16 C19     -3.2866  -5.0209  -6.7367   C.3       1 RES2   0.0000
    17 H28     -2.5418  -4.9731  -7.3712   H         1 RES2   0.0000
    18 C20     -3.7595  -6.4567  -6.5783   C.3       1 RES2   0.0000
    19 H29     -4.5633  -6.4631  -6.0185   H         1 RES2   0.0000
    20 C21     -0.6353  -4.8808  -2.7199   C.2       1 RES2   0.0000
    21 C22     -0.7345  -4.4318  -1.2914   C.3       1 RES2   0.0000
    22 H30     -1.0065  -3.5117  -1.2635   H         1 RES2   0.0000
    23 H31      0.1209  -4.5274  -0.8665   H         1 RES2   0.0000
    24 H32     -1.3818  -4.9699  -0.8319   H         1 RES2   0.0000
    25 C23     -2.6210  -2.0536  -5.0717   C.2       1 RES2   0.0000
    26 C24     -1.7487  -0.9106  -5.4219   C.3       1 RES2   0.0000
    27 H33     -0.8415  -1.1143  -5.1877   H         1 RES2   0.0000
    28 H34     -2.0349  -0.1305  -4.9401   H         1 RES2   0.0000
    29 H35     -1.8058  -0.7418  -6.3653   H         1 RES2   0.0000
    30 C25     -4.2811  -3.6486  -8.3994   C.2       1 RES2   0.0000
    31 C26     -5.4582  -2.7763  -8.6949   C.3       1 RES2   0.0000
    32 H36     -6.2566  -3.1965  -8.3659   H         1 RES2   0.0000
    33 H37     -5.5312  -2.6489  -9.6428   H         1 RES2   0.0000
    34 H38     -5.3425  -1.9262  -8.2644   H         1 RES2   0.0000
    35 C27     -4.0711  -7.1444  -7.8619   C.3       1 RES2   0.0000
    36 H39     -4.3039  -8.0709  -7.6912   H         1 RES2   0.0000
    37 H40     -4.8284  -6.7146  -8.2890   H         1 RES2   0.0000
    38 C28     -3.0901  -7.5615  -9.9416   C.2       1 RES2   0.0000
    39 C29     -1.8508  -7.4374 -10.7546   C.3       1 RES2   0.0000
    40 H41     -1.6058  -6.5141 -10.8248   H         1 RES2   0.0000
    41 H42     -2.0068  -7.7971 -11.6322   H         1 RES2   0.0000
    42 H43     -1.1405  -7.9277 -10.3319   H         1 RES2   0.0000
@<TRIPOS>BOND
     1     1    12    1
     2     2    20    2
     3     3    14    1
     4     4    25    2
     5     5    16    1
     6     6    30    2
     7     7    35    1
     8     8    38    2
     9     9    10    1
    10    11    10    1
    11    12    10    1
    12    13    12    1
    13    14    12    1
    14    15    14    1
    15    16    14    1
    16    17    16    1
    17    18     9    1
    18    19    18    1
    19    20     1    1
    20    21    20    1
    21    22    21    1
    22    23    21    1
    23    24    21    1
    24    25     3    1
    25    26    25    1
    26    27    26    1
    27    28    26    1
    28    29    26    1
    29    30     5    1
    30    31    30    1
    31    32    31    1
    32    33    31    1
    33    34    31    1
    34    35    18    1
    35    36    35    1
    36    37    35    1
    37    38     7    1
    38    39    38    1
    39    40    39    1
    40    41    39    1
    41    42    39    1
    42    16    18    1
@<TRIPOS>SUBSTRUCTURE
     1 RES2        1 GROUP             0 ****  ****    0  
