@<TRIPOS>MOLECULE
01
    31    32     1     0     0
SMALL
NO_CHARGES
****
Generated from the CSD

@<TRIPOS>ATOM
     1 O4       3.1455   3.3744  12.2531   O.2       1 RES1   0.0000
     2 O5      -0.0258   3.6643  12.2581   O.2       1 RES1   0.0000
     3 O6       0.2355   3.3754  14.4636   O.3       1 RES1   0.0000
     4 H1      -0.3633   2.8247  14.3609   H         1 RES1   0.0000
     5 O7       2.3734   8.1268  13.3187   O.3       1 RES1   0.0000
     6 H2       2.1354   8.5998  13.9450   H         1 RES1   0.0000
     7 N2       4.5518   3.9055   9.8901   N.2       1 RES1   0.0000
     8 N3       2.1231   5.3633  12.1622   N.am      1 RES1   0.0000
     9 C18      3.2633   4.5461  10.1520   C.3       1 RES1   0.0000
    10 H17      3.2826   5.4886   9.8843   H         1 RES1   0.0000
    11 C19      2.8741   4.4088  11.6131   C.2       1 RES1   0.0000
    12 C20      2.2712   3.7512   9.2819   C.3       1 RES1   0.0000
    13 H18      1.8225   3.0689   9.8058   H         1 RES1   0.0000
    14 H19      1.6041   4.3388   8.8943   H         1 RES1   0.0000
    15 C21      3.1351   3.1190   8.1953   C.3       1 RES1   0.0000
    16 H20      3.2610   3.7316   7.4535   H         1 RES1   0.0000
    17 H21      2.7316   2.3018   7.8636   H         1 RES1   0.0000
    18 C22      4.4624   2.8286   8.8951   C.3       1 RES1   0.0000
    19 H22      4.4504   1.9575   9.3215   H         1 RES1   0.0000
    20 H23      5.2036   2.8662   8.2704   H         1 RES1   0.0000
    21 C23      1.4832   5.1110  13.4486   C.3       1 RES1   0.0000
    22 H24      2.1488   4.9242  14.1432   H         1 RES1   0.0000
    23 C24      0.4983   3.9598  13.3103   C.2       1 RES1   0.0000
    24 C25      0.7099   6.4104  13.7556   C.3       1 RES1   0.0000
    25 H25     -0.2419   6.2808  13.6205   H         1 RES1   0.0000
    26 H26      0.8593   6.6875  14.6731   H         1 RES1   0.0000
    27 C26      1.2535   7.4560  12.7836   C.3       1 RES1   0.0000
    28 H27      0.5533   8.0927  12.5276   H         1 RES1   0.0000
    29 C27      1.7213   6.6503  11.5804   C.3       1 RES1   0.0000
    30 H28      1.0030   6.5333  10.9390   H         1 RES1   0.0000
    31 H29      2.4699   7.0831  11.1415   H         1 RES1   0.0000
@<TRIPOS>BOND
     1     1    11    2
     2     2    23    2
     3     3     4    1
     4     5     6    1
     5     8    11   am
     6     9     7    1
     7    10     9    1
     8    11     9    1
     9    12     9    1
    10    13    12    1
    11    14    12    1
    12    15    12    1
    13    16    15    1
    14    17    15    1
    15    18     7    1
    16    19    18    1
    17    20    18    1
    18    21     8    1
    19    22    21    1
    20    23     3    1
    21    24    21    1
    22    25    24    1
    23    26    24    1
    24    27     5    1
    25    28    27    1
    26    29     8    1
    27    30    29    1
    28    31    29    1
    29    15    18    1
    30    21    23    1
    31    24    27    1
    32    27    29    1
@<TRIPOS>SUBSTRUCTURE
     1 RES1        1 GROUP             0 ****  ****    0  
