@<TRIPOS>MOLECULE
SAJVIM
    66    70     1     0     0
SMALL
NO_CHARGES
****
Generated from the CSD

@<TRIPOS>ATOM
     1 O1       9.1649   5.9569   8.5752   O.3       1 RES1   0.0000
     2 O2       7.1771   5.0703   7.9202   O.2       1 RES1   0.0000
     3 O3       5.5939   5.4272  11.1551   O.2       1 RES1   0.0000
     4 O4       3.1455   3.3744  12.2531   O.2       1 RES1   0.0000
     5 O5      -0.0258   3.6643  12.2581   O.2       1 RES1   0.0000
     6 O6       0.2355   3.3754  14.4636   O.3       1 RES1   0.0000
     7 H1      -0.3633   2.8247  14.3609   H         1 RES1   0.0000
     8 O7       2.3734   8.1268  13.3187   O.3       1 RES1   0.0000
     9 H2       2.1354   8.5998  13.9450   H         1 RES1   0.0000
    10 N1       8.0588   4.5771   9.9460   N.am      1 RES1   0.0000
    11 H3       8.6901   4.7179  10.5126   H         1 RES1   0.0000
    12 N2       4.5518   3.9055   9.8901   N.am      1 RES1   0.0000
    13 N3       2.1231   5.3633  12.1622   N.am      1 RES1   0.0000
    14 C1      10.1246   7.8228   7.3787   C.3       1 RES1   0.0000
    15 H4      10.0858   8.2790   6.5123   H         1 RES1   0.0000
    16 C2      11.5905   7.6166   7.7152   C.ar      1 RES1   0.0000
    17 C3      12.5042   6.7528   7.1445   C.ar      1 RES1   0.0000
    18 H5      12.2498   6.1717   6.4643   H         1 RES1   0.0000
    19 C4      13.8212   6.7716   7.6132   C.ar      1 RES1   0.0000
    20 H6      14.4483   6.1850   7.2550   H         1 RES1   0.0000
    21 C5      14.1979   7.6593   8.6098   C.ar      1 RES1   0.0000
    22 H7      15.0811   7.6692   8.9023   H         1 RES1   0.0000
    23 C6      13.2832   8.5333   9.1776   C.ar      1 RES1   0.0000
    24 H8      13.5454   9.1298   9.8409   H         1 RES1   0.0000
    25 C7      11.9671   8.4968   8.7347   C.ar      1 RES1   0.0000
    26 C8      10.7687   9.2267   9.1966   C.ar      1 RES1   0.0000
    27 C9      10.5723  10.1352  10.2413   C.ar      1 RES1   0.0000
    28 H9      11.2881  10.4237  10.7606   H         1 RES1   0.0000
    29 C10      9.2781  10.5997  10.4885   C.ar      1 RES1   0.0000
    30 H10      9.1345  11.2024  11.1818   H         1 RES1   0.0000
    31 C11      8.2106  10.1795   9.7228   C.ar      1 RES1   0.0000
    32 H11      7.3573  10.5029   9.9047   H         1 RES1   0.0000
    33 C12      8.3975   9.2809   8.6846   C.ar      1 RES1   0.0000
    34 H12      7.6782   8.9957   8.1692   H         1 RES1   0.0000
    35 C13      9.6813   8.8128   8.4280   C.ar      1 RES1   0.0000
    36 C14      9.2486   6.5901   7.2788   C.3       1 RES1   0.0000
    37 H13      8.3611   6.8413   6.9779   H         1 RES1   0.0000
    38 H14      9.6243   5.9710   6.6339   H         1 RES1   0.0000
    39 C15      8.0608   5.1880   8.7531   C.2       1 RES1   0.0000
    40 C16      6.9713   3.6759  10.2600   C.3       1 RES1   0.0000
    41 H15      7.1836   3.1902  11.0724   H         1 RES1   0.0000
    42 H16      6.8748   3.0298   9.5428   H         1 RES1   0.0000
    43 C17      5.6557   4.4158  10.4479   C.2       1 RES1   0.0000
    44 C18      3.2633   4.5461  10.1520   C.3       1 RES1   0.0000
    45 H17      3.2826   5.4886   9.8843   H         1 RES1   0.0000
    46 C19      2.8741   4.4088  11.6131   C.2       1 RES1   0.0000
    47 C20      2.2712   3.7512   9.2819   C.3       1 RES1   0.0000
    48 H18      1.8225   3.0689   9.8058   H         1 RES1   0.0000
    49 H19      1.6041   4.3388   8.8943   H         1 RES1   0.0000
    50 C21      3.1351   3.1190   8.1953   C.3       1 RES1   0.0000
    51 H20      3.2610   3.7316   7.4535   H         1 RES1   0.0000
    52 H21      2.7316   2.3018   7.8636   H         1 RES1   0.0000
    53 C22      4.4624   2.8286   8.8951   C.3       1 RES1   0.0000
    54 H22      4.4504   1.9575   9.3215   H         1 RES1   0.0000
    55 H23      5.2036   2.8662   8.2704   H         1 RES1   0.0000
    56 C23      1.4832   5.1110  13.4486   C.3       1 RES1   0.0000
    57 H24      2.1488   4.9242  14.1432   H         1 RES1   0.0000
    58 C24      0.4983   3.9598  13.3103   C.2       1 RES1   0.0000
    59 C25      0.7099   6.4104  13.7556   C.3       1 RES1   0.0000
    60 H25     -0.2419   6.2808  13.6205   H         1 RES1   0.0000
    61 H26      0.8593   6.6875  14.6731   H         1 RES1   0.0000
    62 C26      1.2535   7.4560  12.7836   C.3       1 RES1   0.0000
    63 H27      0.5533   8.0927  12.5276   H         1 RES1   0.0000
    64 C27      1.7213   6.6503  11.5804   C.3       1 RES1   0.0000
    65 H28      1.0030   6.5333  10.9390   H         1 RES1   0.0000
    66 H29      2.4699   7.0831  11.1415   H         1 RES1   0.0000
@<TRIPOS>BOND
     1     1    36    1
     2     2    39    2
     3     3    43    2
     4     4    46    2
     5     5    58    2
     6     6     7    1
     7     8     9    1
     8    10    11    1
     9    12    43   am
    10    13    46   am
    11    14    15    1
    12    16    14    1
    13    17    16   ar
    14    18    17    1
    15    19    17   ar
    16    20    19    1
    17    21    19   ar
    18    22    21    1
    19    23    21   ar
    20    24    23    1
    21    25    16   ar
    22    26    25    1
    23    27    26   ar
    24    28    27    1
    25    29    27   ar
    26    30    29    1
    27    31    29   ar
    28    32    31    1
    29    33    31   ar
    30    34    33    1
    31    35    14    1
    32    36    14    1
    33    37    36    1
    34    38    36    1
    35    39     1    1
    36    40    10    1
    37    41    40    1
    38    42    40    1
    39    43    40    1
    40    44    12    1
    41    45    44    1
    42    46    44    1
    43    47    44    1
    44    48    47    1
    45    49    47    1
    46    50    47    1
    47    51    50    1
    48    52    50    1
    49    53    12    1
    50    54    53    1
    51    55    53    1
    52    56    13    1
    53    57    56    1
    54    58     6    1
    55    59    56    1
    56    60    59    1
    57    61    59    1
    58    62     8    1
    59    63    62    1
    60    64    13    1
    61    65    64    1
    62    66    64    1
    63    10    39   am
    64    23    25   ar
    65    26    35   ar
    66    33    35   ar
    67    50    53    1
    68    56    58    1
    69    59    62    1
    70    62    64    1
@<TRIPOS>SUBSTRUCTURE
     1 RES1        1 GROUP             0 ****  ****    0  
@<TRIPOS>CRYSIN
    9.4887    9.8639   26.3497   90.0000   90.0000   90.0000    19     1
