@<TRIPOS>MOLECULE
02
    22    24     1     0     0
SMALL
NO_CHARGES
****
Generated from the CSD

@<TRIPOS>ATOM
     1 C1      10.1246   7.8228   7.3787   C.3       1 RES2   0.0000
     2 H4      10.0858   8.2790   6.5123   H         1 RES2   0.0000
     3 C2      11.5905   7.6166   7.7152   C.ar      1 RES2   0.0000
     4 C3      12.5042   6.7528   7.1445   C.ar      1 RES2   0.0000
     5 H5      12.2498   6.1717   6.4643   H         1 RES2   0.0000
     6 C4      13.8212   6.7716   7.6132   C.ar      1 RES2   0.0000
     7 H6      14.4483   6.1850   7.2550   H         1 RES2   0.0000
     8 C5      14.1979   7.6593   8.6098   C.ar      1 RES2   0.0000
     9 H7      15.0811   7.6692   8.9023   H         1 RES2   0.0000
    10 C6      13.2832   8.5333   9.1776   C.ar      1 RES2   0.0000
    11 H8      13.5454   9.1298   9.8409   H         1 RES2   0.0000
    12 C7      11.9671   8.4968   8.7347   C.ar      1 RES2   0.0000
    13 C8      10.7687   9.2267   9.1966   C.ar      1 RES2   0.0000
    14 C9      10.5723  10.1352  10.2413   C.ar      1 RES2   0.0000
    15 H9      11.2881  10.4237  10.7606   H         1 RES2   0.0000
    16 C10      9.2781  10.5997  10.4885   C.ar      1 RES2   0.0000
    17 H10      9.1345  11.2024  11.1818   H         1 RES2   0.0000
    18 C11      8.2106  10.1795   9.7228   C.ar      1 RES2   0.0000
    19 H11      7.3573  10.5029   9.9047   H         1 RES2   0.0000
    20 C12      8.3975   9.2809   8.6846   C.ar      1 RES2   0.0000
    21 H12      7.6782   8.9957   8.1692   H         1 RES2   0.0000
    22 C13      9.6813   8.8128   8.4280   C.ar      1 RES2   0.0000
@<TRIPOS>BOND
     1     1     2    1
     2     3     1    1
     3     4     3   ar
     4     5     4    1
     5     6     4   ar
     6     7     6    1
     7     8     6   ar
     8     9     8    1
     9    10     8   ar
    10    11    10    1
    11    12     3   ar
    12    13    12    1
    13    14    13   ar
    14    15    14    1
    15    16    14   ar
    16    17    16    1
    17    18    16   ar
    18    19    18    1
    19    20    18   ar
    20    21    20    1
    21    22     1    1
    22    10    12   ar
    23    13    22   ar
    24    20    22   ar
@<TRIPOS>SUBSTRUCTURE
     1 RES2        1 GROUP             0 ****  ****    0  
