@<TRIPOS>MOLECULE
02
    15    16     1     0     0
SMALL
NO_CHARGES
****
Generated from the CSD

@<TRIPOS>ATOM
     1 C45      4.2714   6.1099   8.9986   C.2       1 RES2   0.0000
     2 C46      3.4999   7.3343   9.0257   C.2       1 RES2   0.0000
     3 H75      3.6816   8.1139   8.5520   H         1 RES2   0.0000
     4 N2       2.4056   7.1222   9.9190   N.pl3     1 RES2   0.0000
     5 H76      1.8003   7.6911  10.1441   H         1 RES2   0.0000
     6 C47      2.5229   5.8317  10.3429   C.ar      1 RES2   0.0000
     7 C48      1.7204   5.2146  11.2465   C.ar      1 RES2   0.0000
     8 H77      0.9863   5.6595  11.6045   H         1 RES2   0.0000
     9 C49      2.0142   3.8827  11.6380   C.ar      1 RES2   0.0000
    10 H78      1.4484   3.4296  12.2207   H         1 RES2   0.0000
    11 C50      3.0763   3.3015  11.1771   C.ar      1 RES2   0.0000
    12 H79      3.2944   2.4544  11.4905   H         1 RES2   0.0000
    13 C51      3.8737   3.8676  10.2652   C.ar      1 RES2   0.0000
    14 H80      4.5849   3.3896   9.9055   H         1 RES2   0.0000
    15 C52      3.6256   5.2298   9.8399   C.ar      1 RES2   0.0000
@<TRIPOS>BOND
     1     2     1    2
     2     3     2    1
     3     4     2    1
     4     5     4    1
     5     6     4    1
     6     7     6   ar
     7     8     7    1
     8     9     7   ar
     9    10     9    1
    10    11     9   ar
    11    12    11    1
    12    13    11   ar
    13    14    13    1
    14    15     1    1
    15     6    15   ar
    16    13    15   ar
@<TRIPOS>SUBSTRUCTURE
     1 RES2        1 GROUP             0 ****  ****    0  
