@<TRIPOS>MOLECULE
01
    66    69     1     0     0
SMALL
NO_CHARGES
****
Generated from the CSD

@<TRIPOS>ATOM
     1 O5       1.4587   9.8489   3.4614   O.3       1 RES1   0.0000
     2 O6      -0.6344   8.9336   3.3492   O.3       1 RES1   0.0000
     3 O7      -0.2917   5.5722   1.9758   O.3       1 RES1   0.0000
     4 H3      -0.0353   5.3358   2.7177   H         1 RES1   0.0000
     5 O8       0.6095   7.0439   4.0327   O.3       1 RES1   0.0000
     6 O9       0.1059   4.5225   4.9339   O.3       1 RES1   0.0000
     7 O10     -0.8109   2.4792   6.8690   O.3       1 RES1   0.0000
     8 H4      -1.3061   2.7753   6.2866   H         1 RES1   0.0000
     9 C13      2.4451  10.7639   2.9984   C.3       1 RES1   0.0000
    10 H17      2.7856  10.4568   2.1335   H         1 RES1   0.0000
    11 C14      1.8834  12.1784   2.8391   C.3       1 RES1   0.0000
    12 H18      1.5906  12.5338   3.7043   H         1 RES1   0.0000
    13 C15      0.6634  12.0256   1.8632   C.3       1 RES1   0.0000
    14 H19      0.2211  12.8836   1.7631   H         1 RES1   0.0000
    15 H20      0.9832  11.7515   0.9902   H         1 RES1   0.0000
    16 C16     -0.3343  11.0008   2.3782   C.3       1 RES1   0.0000
    17 H21     -0.6811  11.3217   3.2377   H         1 RES1   0.0000
    18 C17      0.3084   9.6813   2.6055   C.3       1 RES1   0.0000
    19 C18      0.7060   8.9348   1.3710   C.2       1 RES1   0.0000
    20 H22      1.2760   9.3508   0.7658   H         1 RES1   0.0000
    21 C19      0.2990   7.7503   1.1120   C.2       1 RES1   0.0000
    22 H23      0.5731   7.3619   0.3134   H         1 RES1   0.0000
    23 C20     -0.5742   6.9638   1.9928   C.3       1 RES1   0.0000
    24 H24     -1.4899   7.0754   1.6634   H         1 RES1   0.0000
    25 C21     -0.5430   7.5106   3.4147   C.3       1 RES1   0.0000
    26 C22     -1.6903   7.0534   4.2763   C.3       1 RES1   0.0000
    27 H25     -2.4357   7.6690   4.2101   H         1 RES1   0.0000
    28 H26     -1.9882   6.1691   4.0071   H         1 RES1   0.0000
    29 C23     -1.1493   7.0272   5.6737   C.3       1 RES1   0.0000
    30 H27     -1.5314   6.2958   6.1834   H         1 RES1   0.0000
    31 H28     -1.3300   7.8619   6.1335   H         1 RES1   0.0000
    32 C24      0.3748   6.8247   5.4596   C.3       1 RES1   0.0000
    33 C25      0.8752   5.3882   5.7264   C.3       1 RES1   0.0000
    34 H29      1.8107   5.3248   5.4389   H         1 RES1   0.0000
    35 C26      0.7849   4.9777   7.1999   C.3       1 RES1   0.0000
    36 H30     -0.1329   5.0452   7.5048   H         1 RES1   0.0000
    37 H31      1.3300   5.5700   7.7399   H         1 RES1   0.0000
    38 C27      1.2802   3.5329   7.3484   C.3       1 RES1   0.0000
    39 H32      2.2291   3.4971   7.1522   H         1 RES1   0.0000
    40 H33      1.1535   3.2436   8.2670   H         1 RES1   0.0000
    41 C28      0.5638   2.6183   6.4476   C.3       1 RES1   0.0000
    42 C29      0.5908   3.1527   4.9823   C.3       1 RES1   0.0000
    43 H34     -0.0426   2.6087   4.4701   H         1 RES1   0.0000
    44 C30      1.9239   3.0246   4.3013   C.3       1 RES1   0.0000
    45 H35      1.9592   3.6252   3.5512   H         1 RES1   0.0000
    46 H36      2.0402   2.1225   3.9928   H         1 RES1   0.0000
    47 H37      2.6226   3.2450   4.9225   H         1 RES1   0.0000
    48 C31      1.1421   1.2176   6.5353   C.3       1 RES1   0.0000
    49 H38      2.0526   1.2313   6.2012   H         1 RES1   0.0000
    50 H39      0.6261   0.6281   5.9625   H         1 RES1   0.0000
    51 C32      1.1462   0.6542   7.9575   C.3       1 RES1   0.0000
    52 H40      1.4951   1.3126   8.5627   H         1 RES1   0.0000
    53 H41      1.6955  -0.1322   7.9892   H         1 RES1   0.0000
    54 H42      0.2492   0.4284   8.2136   H         1 RES1   0.0000
    55 C33      1.2231   7.8329   6.2261   C.3       1 RES1   0.0000
    56 H43      2.1533   7.6594   6.0623   H         1 RES1   0.0000
    57 H44      1.0445   7.7530   7.1664   H         1 RES1   0.0000
    58 H45      1.0061   8.7213   5.9340   H         1 RES1   0.0000
    59 C34      2.9071  13.1054   2.1991   C.3       1 RES1   0.0000
    60 H46      3.6920  13.1453   2.7497   H         1 RES1   0.0000
    61 H47      2.5323  13.9841   2.1122   H         1 RES1   0.0000
    62 H48      3.1428  12.7707   1.3321   H         1 RES1   0.0000
    63 C35     -1.5221  10.8796   1.4009   C.3       1 RES1   0.0000
    64 H49     -1.2044  10.9650   0.4987   H         1 RES1   0.0000
    65 H50     -2.1596  11.5752   1.5815   H         1 RES1   0.0000
    66 H51     -1.9426  10.0243   1.5138   H         1 RES1   0.0000
@<TRIPOS>BOND
     1     1     9    1
     2     2    18    1
     3     3     4    1
     4     5    25    1
     5     6    33    1
     6     7     8    1
     7    10     9    1
     8    11     9    1
     9    12    11    1
    10    13    11    1
    11    14    13    1
    12    15    13    1
    13    16    13    1
    14    17    16    1
    15    18     1    1
    16    19    18    1
    17    20    19    1
    18    21    19    2
    19    22    21    1
    20    23     3    1
    21    24    23    1
    22    25     2    1
    23    26    25    1
    24    27    26    1
    25    28    26    1
    26    29    26    1
    27    30    29    1
    28    31    29    1
    29    32     5    1
    30    33    32    1
    31    34    33    1
    32    35    33    1
    33    36    35    1
    34    37    35    1
    35    38    35    1
    36    39    38    1
    37    40    38    1
    38    41     7    1
    39    42     6    1
    40    43    42    1
    41    44    42    1
    42    45    44    1
    43    46    44    1
    44    47    44    1
    45    48    41    1
    46    49    48    1
    47    50    48    1
    48    51    48    1
    49    52    51    1
    50    53    51    1
    51    54    51    1
    52    55    32    1
    53    56    55    1
    54    57    55    1
    55    58    55    1
    56    59    11    1
    57    60    59    1
    58    61    59    1
    59    62    59    1
    60    63    16    1
    61    64    63    1
    62    65    63    1
    63    66    63    1
    64    16    18    1
    65    21    23    1
    66    23    25    1
    67    29    32    1
    68    38    41    1
    69    41    42    1
@<TRIPOS>SUBSTRUCTURE
     1 RES1        1 GROUP             0 ****  ****    0  
