@<TRIPOS>MOLECULE
SEFTAA
   144   150     1     0     0
SMALL
NO_CHARGES
****
Generated from the CSD

@<TRIPOS>ATOM
     1 N1       5.4446   5.2201   5.9615   N.am      1 RES1   0.0000
     2 H1       4.6981   5.1788   5.5351   H         1 RES1   0.0000
     3 O1       7.3965   4.1912   6.3996   O.2       1 RES1   0.0000
     4 O2       6.4725   4.8627   2.8840   O.3       1 RES1   0.0000
     5 O3       3.5429   6.4086   3.7798   O.3       1 RES1   0.0000
     6 H2       2.7129   6.6016   3.8646   H         1 RES1   0.0000
     7 O4       4.4904   8.8245   5.1390   O.2       1 RES1   0.0000
     8 O5       1.4587   9.8489   3.4614   O.3       1 RES1   0.0000
     9 O6      -0.6344   8.9336   3.3492   O.3       1 RES1   0.0000
    10 O7      -0.2917   5.5722   1.9758   O.3       1 RES1   0.0000
    11 H3      -0.0353   5.3358   2.7177   H         1 RES1   0.0000
    12 O8       0.6095   7.0439   4.0327   O.3       1 RES1   0.0000
    13 O9       0.1059   4.5225   4.9339   O.3       1 RES1   0.0000
    14 O10     -0.8109   2.4792   6.8690   O.3       1 RES1   0.0000
    15 H4      -1.3061   2.7753   6.2866   H         1 RES1   0.0000
    16 C1       6.3686   4.2395   5.7542   C.2       1 RES1   0.0000
    17 C2       6.0706   3.2326   4.5944   C.3       1 RES1   0.0000
    18 H5       5.1300   3.3153   4.3312   H         1 RES1   0.0000
    19 C3       6.9428   3.6389   3.4347   C.3       1 RES1   0.0000
    20 H6       7.8367   3.8139   3.7969   H         1 RES1   0.0000
    21 C4       7.1016   2.5977   2.3622   C.3       1 RES1   0.0000
    22 H7       7.2636   1.7354   2.7782   H         1 RES1   0.0000
    23 H8       7.8762   2.8153   1.8201   H         1 RES1   0.0000
    24 C5       5.8869   2.4957   1.4725   C.3       1 RES1   0.0000
    25 H9       6.0748   1.8938   0.7337   H         1 RES1   0.0000
    26 H10      5.1445   2.1307   1.9768   H         1 RES1   0.0000
    27 C6       5.5090   3.8469   0.9328   C.3       1 RES1   0.0000
    28 H11      4.6451   3.7409   0.4808   H         1 RES1   0.0000
    29 C7       5.2753   4.7615   2.1118   C.3       1 RES1   0.0000
    30 H12      4.5828   4.3579   2.6749   H         1 RES1   0.0000
    31 C8       4.8434   6.1967   1.7870   C.3       1 RES1   0.0000
    32 H13      5.5827   6.6126   1.2965   H         1 RES1   0.0000
    33 C9       4.6254   7.0272   3.0429   C.3       1 RES1   0.0000
    34 H14      5.4352   6.9556   3.5903   H         1 RES1   0.0000
    35 C10      4.3679   8.4748   2.8121   C.3       1 RES1   0.0000
    36 H15      3.5788   8.5657   2.2404   H         1 RES1   0.0000
    37 C11      4.1322   9.2681   4.1114   C.2       1 RES1   0.0000
    38 C12      3.5591  10.6716   4.0306   C.3       1 RES1   0.0000
    39 H16      4.2776  11.2818   3.7613   H         1 RES1   0.0000
    40 C13      2.4451  10.7639   2.9984   C.3       1 RES1   0.0000
    41 H17      2.7856  10.4568   2.1335   H         1 RES1   0.0000
    42 C14      1.8834  12.1784   2.8391   C.3       1 RES1   0.0000
    43 H18      1.5906  12.5338   3.7043   H         1 RES1   0.0000
    44 C15      0.6634  12.0256   1.8632   C.3       1 RES1   0.0000
    45 H19      0.2211  12.8836   1.7631   H         1 RES1   0.0000
    46 H20      0.9832  11.7515   0.9902   H         1 RES1   0.0000
    47 C16     -0.3343  11.0008   2.3782   C.3       1 RES1   0.0000
    48 H21     -0.6811  11.3217   3.2377   H         1 RES1   0.0000
    49 C17      0.3084   9.6813   2.6055   C.3       1 RES1   0.0000
    50 C18      0.7060   8.9348   1.3710   C.2       1 RES1   0.0000
    51 H22      1.2760   9.3508   0.7658   H         1 RES1   0.0000
    52 C19      0.2990   7.7503   1.1120   C.2       1 RES1   0.0000
    53 H23      0.5731   7.3619   0.3134   H         1 RES1   0.0000
    54 C20     -0.5742   6.9638   1.9928   C.3       1 RES1   0.0000
    55 H24     -1.4899   7.0754   1.6634   H         1 RES1   0.0000
    56 C21     -0.5430   7.5106   3.4147   C.3       1 RES1   0.0000
    57 C22     -1.6903   7.0534   4.2763   C.3       1 RES1   0.0000
    58 H25     -2.4357   7.6690   4.2101   H         1 RES1   0.0000
    59 H26     -1.9882   6.1691   4.0071   H         1 RES1   0.0000
    60 C23     -1.1493   7.0272   5.6737   C.3       1 RES1   0.0000
    61 H27     -1.5314   6.2958   6.1834   H         1 RES1   0.0000
    62 H28     -1.3300   7.8619   6.1335   H         1 RES1   0.0000
    63 C24      0.3748   6.8247   5.4596   C.3       1 RES1   0.0000
    64 C25      0.8752   5.3882   5.7264   C.3       1 RES1   0.0000
    65 H29      1.8107   5.3248   5.4389   H         1 RES1   0.0000
    66 C26      0.7849   4.9777   7.1999   C.3       1 RES1   0.0000
    67 H30     -0.1329   5.0452   7.5048   H         1 RES1   0.0000
    68 H31      1.3300   5.5700   7.7399   H         1 RES1   0.0000
    69 C27      1.2802   3.5329   7.3484   C.3       1 RES1   0.0000
    70 H32      2.2291   3.4971   7.1522   H         1 RES1   0.0000
    71 H33      1.1535   3.2436   8.2670   H         1 RES1   0.0000
    72 C28      0.5638   2.6183   6.4476   C.3       1 RES1   0.0000
    73 C29      0.5908   3.1527   4.9823   C.3       1 RES1   0.0000
    74 H34     -0.0426   2.6087   4.4701   H         1 RES1   0.0000
    75 C30      1.9239   3.0246   4.3013   C.3       1 RES1   0.0000
    76 H35      1.9592   3.6252   3.5512   H         1 RES1   0.0000
    77 H36      2.0402   2.1225   3.9928   H         1 RES1   0.0000
    78 H37      2.6226   3.2450   4.9225   H         1 RES1   0.0000
    79 C31      1.1421   1.2176   6.5353   C.3       1 RES1   0.0000
    80 H38      2.0526   1.2313   6.2012   H         1 RES1   0.0000
    81 H39      0.6261   0.6281   5.9625   H         1 RES1   0.0000
    82 C32      1.1462   0.6542   7.9575   C.3       1 RES1   0.0000
    83 H40      1.4951   1.3126   8.5627   H         1 RES1   0.0000
    84 H41      1.6955  -0.1322   7.9892   H         1 RES1   0.0000
    85 H42      0.2492   0.4284   8.2136   H         1 RES1   0.0000
    86 C33      1.2231   7.8329   6.2261   C.3       1 RES1   0.0000
    87 H43      2.1533   7.6594   6.0623   H         1 RES1   0.0000
    88 H44      1.0445   7.7530   7.1664   H         1 RES1   0.0000
    89 H45      1.0061   8.7213   5.9340   H         1 RES1   0.0000
    90 C34      2.9071  13.1054   2.1991   C.3       1 RES1   0.0000
    91 H46      3.6920  13.1453   2.7497   H         1 RES1   0.0000
    92 H47      2.5323  13.9841   2.1122   H         1 RES1   0.0000
    93 H48      3.1428  12.7707   1.3321   H         1 RES1   0.0000
    94 C35     -1.5221  10.8796   1.4009   C.3       1 RES1   0.0000
    95 H49     -1.2044  10.9650   0.4987   H         1 RES1   0.0000
    96 H50     -2.1596  11.5752   1.5815   H         1 RES1   0.0000
    97 H51     -1.9426  10.0243   1.5138   H         1 RES1   0.0000
    98 C36      3.0701  11.0862   5.4877   C.3       1 RES1   0.0000
    99 H52      2.1128  11.2391   5.5030   H         1 RES1   0.0000
   100 H53      3.2892  10.3989   6.1371   H         1 RES1   0.0000
   101 C37      3.7730  12.2735   5.7581   C.3       1 RES1   0.0000
   102 H54      4.6441  12.0600   6.0979   H         1 RES1   0.0000
   103 H55      3.2923  12.7886   6.4113   H         1 RES1   0.0000
   104 H56      3.8613  12.7845   4.9510   H         1 RES1   0.0000
   105 C38      5.5681   9.1414   2.1111   C.3       1 RES1   0.0000
   106 H57      6.3562   9.0285   2.6464   H         1 RES1   0.0000
   107 H58      5.3916  10.0780   1.9946   H         1 RES1   0.0000
   108 H59      5.7041   8.7337   1.2538   H         1 RES1   0.0000
   109 C39      3.6588   6.1815   0.8637   C.3       1 RES1   0.0000
   110 H60      3.9630   6.1705  -0.0463   H         1 RES1   0.0000
   111 H61      3.1262   6.9666   1.0151   H         1 RES1   0.0000
   112 H62      3.1303   5.3992   1.0329   H         1 RES1   0.0000
   113 C40      6.4828   4.3910  -0.1008   C.3       1 RES1   0.0000
   114 H63      7.3820   4.2753   0.2173   H         1 RES1   0.0000
   115 H64      6.3105   5.3234  -0.2422   H         1 RES1   0.0000
   116 H65      6.3717   3.9144  -0.9261   H         1 RES1   0.0000
   117 C41      6.3084   1.8525   5.1419   C.3       1 RES1   0.0000
   118 H66      6.2025   1.2010   4.4309   H         1 RES1   0.0000
   119 H67      7.2179   1.7892   5.4710   H         1 RES1   0.0000
   120 C42      5.3563   1.5316   6.2510   C.3       1 RES1   0.0000
   121 H68      5.2504   2.3015   6.8174   H         1 RES1   0.0000
   122 H69      5.7021   0.8002   6.7711   H         1 RES1   0.0000
   123 H70      4.5050   1.2864   5.8842   H         1 RES1   0.0000
   124 C43      5.6647   6.3137   6.8562   C.3       1 RES1   0.0000
   125 H71      6.6002   6.5589   6.7817   H         1 RES1   0.0000
   126 H72      5.1497   7.0644   6.5217   H         1 RES1   0.0000
   127 C44      5.3792   6.1884   8.2011   C.3       1 RES1   0.0000
   128 H73      5.8796   5.3964   8.4522   H         1 RES1   0.0000
   129 H74      5.8703   6.9294   8.5912   H         1 RES1   0.0000
   130 C45      4.2714   6.1099   8.9986   C.2       1 RES1   0.0000
   131 C46      3.4999   7.3343   9.0257   C.2       1 RES1   0.0000
   132 H75      3.6816   8.1139   8.5520   H         1 RES1   0.0000
   133 N2       2.4056   7.1222   9.9190   N.pl3     1 RES1   0.0000
   134 H76      1.8003   7.6911  10.1441   H         1 RES1   0.0000
   135 C47      2.5229   5.8317  10.3429   C.ar      1 RES1   0.0000
   136 C48      1.7204   5.2146  11.2465   C.ar      1 RES1   0.0000
   137 H77      0.9863   5.6595  11.6045   H         1 RES1   0.0000
   138 C49      2.0142   3.8827  11.6380   C.ar      1 RES1   0.0000
   139 H78      1.4484   3.4296  12.2207   H         1 RES1   0.0000
   140 C50      3.0763   3.3015  11.1771   C.ar      1 RES1   0.0000
   141 H79      3.2944   2.4544  11.4905   H         1 RES1   0.0000
   142 C51      3.8737   3.8676  10.2652   C.ar      1 RES1   0.0000
   143 H80      4.5849   3.3896   9.9055   H         1 RES1   0.0000
   144 C52      3.6256   5.2298   9.8399   C.ar      1 RES1   0.0000
@<TRIPOS>BOND
     1     1     2    1
     2     3    16    2
     3     4    19    1
     4     5     6    1
     5     7    37    2
     6     8    40    1
     7     9    49    1
     8    10    11    1
     9    12    56    1
    10    13    64    1
    11    14    15    1
    12    16     1   am
    13    17    16    1
    14    18    17    1
    15    19    17    1
    16    20    19    1
    17    21    19    1
    18    22    21    1
    19    23    21    1
    20    24    21    1
    21    25    24    1
    22    26    24    1
    23    27    24    1
    24    28    27    1
    25    29     4    1
    26    30    29    1
    27    31    29    1
    28    32    31    1
    29    33     5    1
    30    34    33    1
    31    35    33    1
    32    36    35    1
    33    37    35    1
    34    38    37    1
    35    39    38    1
    36    40    38    1
    37    41    40    1
    38    42    40    1
    39    43    42    1
    40    44    42    1
    41    45    44    1
    42    46    44    1
    43    47    44    1
    44    48    47    1
    45    49     8    1
    46    50    49    1
    47    51    50    1
    48    52    50    2
    49    53    52    1
    50    54    10    1
    51    55    54    1
    52    56     9    1
    53    57    56    1
    54    58    57    1
    55    59    57    1
    56    60    57    1
    57    61    60    1
    58    62    60    1
    59    63    12    1
    60    64    63    1
    61    65    64    1
    62    66    64    1
    63    67    66    1
    64    68    66    1
    65    69    66    1
    66    70    69    1
    67    71    69    1
    68    72    14    1
    69    73    13    1
    70    74    73    1
    71    75    73    1
    72    76    75    1
    73    77    75    1
    74    78    75    1
    75    79    72    1
    76    80    79    1
    77    81    79    1
    78    82    79    1
    79    83    82    1
    80    84    82    1
    81    85    82    1
    82    86    63    1
    83    87    86    1
    84    88    86    1
    85    89    86    1
    86    90    42    1
    87    91    90    1
    88    92    90    1
    89    93    90    1
    90    94    47    1
    91    95    94    1
    92    96    94    1
    93    97    94    1
    94    98    38    1
    95    99    98    1
    96   100    98    1
    97   101    98    1
    98   102   101    1
    99   103   101    1
   100   104   101    1
   101   105    35    1
   102   106   105    1
   103   107   105    1
   104   108   105    1
   105   109    31    1
   106   110   109    1
   107   111   109    1
   108   112   109    1
   109   113    27    1
   110   114   113    1
   111   115   113    1
   112   116   113    1
   113   117    17    1
   114   118   117    1
   115   119   117    1
   116   120   117    1
   117   121   120    1
   118   122   120    1
   119   123   120    1
   120   124     1    1
   121   125   124    1
   122   126   124    1
   123   127   124    1
   124   128   127    1
   125   129   127    1
   126   130   127    1
   127   131   130    2
   128   132   131    1
   129   133   131    1
   130   134   133    1
   131   135   133    1
   132   136   135   ar
   133   137   136    1
   134   138   136   ar
   135   139   138    1
   136   140   138   ar
   137   141   140    1
   138   142   140   ar
   139   143   142    1
   140   144   130    1
   141    27    29    1
   142    31    33    1
   143    47    49    1
   144    52    54    1
   145    54    56    1
   146    60    63    1
   147    69    72    1
   148    72    73    1
   149   135   144   ar
   150   142   144   ar
@<TRIPOS>SUBSTRUCTURE
     1 RES1        1 GROUP             0 ****  ****    0  
@<TRIPOS>CRYSIN
   10.3825   13.7734   35.6184   90.0000   90.0000   90.0000    19     1
