@<TRIPOS>MOLECULE
01
    23    24     1     0     0
SMALL
NO_CHARGES
****
Generated from the CSD

@<TRIPOS>ATOM
     1 O1       5.8789   6.5751  37.0079   O.3       1 RES1   0.0000
     2 O2       5.7690   5.7376  34.9371   O.2       1 RES1   0.0000
     3 N2       4.6084   7.6908  35.5395   N.am      1 RES1   0.0000
     4 C1       3.1607   9.9038  39.5500   C.ar      1 RES1   0.0000
     5 H2       2.7854   9.0588  39.7672   H         1 RES1   0.0000
     6 C2       3.3410  10.8401  40.5444   C.ar      1 RES1   0.0000
     7 H3       3.0701  10.6459  41.4337   H         1 RES1   0.0000
     8 C3       3.9136  12.0554  40.2515   C.ar      1 RES1   0.0000
     9 H4       4.0527  12.6929  40.9401   H         1 RES1   0.0000
    10 C4       4.2865  12.3492  38.9547   C.ar      1 RES1   0.0000
    11 H5       4.6828  13.1893  38.7539   H         1 RES1   0.0000
    12 C5       4.0827  11.4179  37.9484   C.ar      1 RES1   0.0000
    13 H6       4.3285  11.6271  37.0539   H         1 RES1   0.0000
    14 C6       3.5206  10.1786  38.2372   C.ar      1 RES1   0.0000
    15 C7       3.3321   9.1576  37.1330   C.3       1 RES1   0.0000
    16 H7       2.8889   9.5834  36.3561   H         1 RES1   0.0000
    17 H8       2.7522   8.4221  37.4548   H         1 RES1   0.0000
    18 C8       4.6860   8.5972  36.7083   C.3       1 RES1   0.0000
    19 H9       5.3209   9.3460  36.5194   H         1 RES1   0.0000
    20 C9       5.2829   7.6626  37.7565   C.3       1 RES1   0.0000
    21 H10      5.9679   8.1332  38.2936   H         1 RES1   0.0000
    22 H11      4.5784   7.3239  38.3641   H         1 RES1   0.0000
    23 C10      5.4430   6.5751  35.7303   C.2       1 RES1   0.0000
@<TRIPOS>BOND
     1     1    20    1
     2     2    23    2
     3     3    18    1
     4     4     5    1
     5     6     4   ar
     6     7     6    1
     7     8     6   ar
     8     9     8    1
     9    10     8   ar
    10    11    10    1
    11    12    10   ar
    12    13    12    1
    13    14     4   ar
    14    15    14    1
    15    16    15    1
    16    17    15    1
    17    18    15    1
    18    19    18    1
    19    20    18    1
    20    21    20    1
    21    22    20    1
    22    23     1    1
    23     3    23   am
    24    12    14   ar
@<TRIPOS>SUBSTRUCTURE
     1 RES1        1 GROUP             0 ****  ****    0  
