@<TRIPOS>MOLECULE
02
    21    21     1     0     0
SMALL
NO_CHARGES
****
Generated from the CSD

@<TRIPOS>ATOM
     1 O5       0.4553   0.6209  30.3339   O.3       1 RES2   0.0000
     2 O6       4.9003   3.9164  29.9453   O.3       1 RES2   0.0000
     3 N1       4.2865   2.2769  27.7943   N.pl3     1 RES2   0.0000
     4 O7       5.4341   1.9582  27.8474   O.2       1 RES2   0.0000
     5 O8       3.7527   2.6455  26.7825   O.2       1 RES2   0.0000
     6 C18      3.0426   3.0141  31.2347   C.ar      1 RES2   0.0000
     7 C19      1.9419   2.1748  31.2640   C.ar      1 RES2   0.0000
     8 H21      1.4129   2.1358  32.0505   H         1 RES2   0.0000
     9 C20      1.5860   1.3846  30.1702   C.ar      1 RES2   0.0000
    10 C21      2.3471   1.4269  29.0106   C.ar      1 RES2   0.0000
    11 H22      2.1060   0.9214  28.2423   H         1 RES2   0.0000
    12 C22      3.4720   2.2354  29.0162   C.ar      1 RES2   0.0000
    13 C23      3.8433   3.0406  30.0841   C.ar      1 RES2   0.0000
    14 C24      0.0057  -0.1361  29.1992   C.3       1 RES2   0.0000
    15 H23     -0.8468  -0.5694  29.4115   H         1 RES2   0.0000
    16 H24      0.6729  -0.8201  28.9772   H         1 RES2   0.0000
    17 H25     -0.1140   0.4632  28.4316   H         1 RES2   0.0000
    18 C25      6.1499   3.4631  30.4886   C.3       1 RES2   0.0000
    19 H26      6.0836   3.4158  31.4641   H         1 RES2   0.0000
    20 H27      6.8608   4.0907  30.2392   H         1 RES2   0.0000
    21 H28      6.3585   2.5749  30.1316   H         1 RES2   0.0000
@<TRIPOS>BOND
     1     1     9    1
     2     2    13    1
     3     3     4    2
     4     5     3    2
     5     7     6   ar
     6     8     7    1
     7     9     7   ar
     8    10     9   ar
     9    11    10    1
    10    12     3    1
    11    13     6   ar
    12    14     1    1
    13    15    14    1
    14    16    14    1
    15    17    14    1
    16    18     2    1
    17    19    18    1
    18    20    18    1
    19    21    18    1
    20    10    12   ar
    21    12    13   ar
@<TRIPOS>SUBSTRUCTURE
     1 RES2        1 GROUP             0 ****  ****    0  
