@<TRIPOS>MOLECULE
SERMOT
   119   122     1     0     0
SMALL
NO_CHARGES
****
Generated from the CSD

@<TRIPOS>ATOM
     1 C1      -2.3168   8.6016   3.1991   C.ar      1 RES1   0.0000
     2 C2      -3.1766   7.6371   2.6699   C.ar      1 RES1   0.0000
     3 H1      -2.8605   7.0277   2.0140   H         1 RES1   0.0000
     4 C3      -4.4857   7.5704   3.1007   C.ar      1 RES1   0.0000
     5 H2      -5.0722   6.9300   2.7176   H         1 RES1   0.0000
     6 C4      -4.9529   8.4119   4.0712   C.ar      1 RES1   0.0000
     7 H3      -5.8547   8.3533   4.3634   H         1 RES1   0.0000
     8 C5      -4.0958   9.3523   4.6243   C.ar      1 RES1   0.0000
     9 H4      -4.4064   9.9398   5.3026   H         1 RES1   0.0000
    10 C6      -2.7955   9.4293   4.1860   C.ar      1 RES1   0.0000
    11 H5      -2.2126  10.0720   4.5736   H         1 RES1   0.0000
    12 C7      -0.9164   8.7384   2.6401   C.3       1 RES1   0.0000
    13 H6      -0.6511   7.8900   2.2063   H         1 RES1   0.0000
    14 H7      -0.9057   9.4512   1.9529   H         1 RES1   0.0000
    15 C8       0.5850   8.0084   4.3321   C.2       1 RES1   0.0000
    16 C9       1.9966   7.5336   6.2686   C.3       1 RES1   0.0000
    17 H8       2.7309   8.0291   6.7337   H         1 RES1   0.0000
    18 C10      0.9748   7.1611   7.3285   C.3       1 RES1   0.0000
    19 H9       1.4063   6.5920   8.0142   H         1 RES1   0.0000
    20 H10      0.2456   6.6369   6.9111   H         1 RES1   0.0000
    21 C11      0.3898   8.3935   7.9948   C.ar      1 RES1   0.0000
    22 C12     -0.8771   8.8315   7.6907   C.ar      1 RES1   0.0000
    23 H11     -1.3990   8.3579   7.0527   H         1 RES1   0.0000
    24 C13     -1.4071   9.9697   8.3094   C.ar      1 RES1   0.0000
    25 H12     -2.2874  10.2559   8.0947   H         1 RES1   0.0000
    26 C14     -0.6745  10.6687   9.2157   C.ar      1 RES1   0.0000
    27 H13     -1.0397  11.4355   9.6406   H         1 RES1   0.0000
    28 C15      0.6055  10.2525   9.5079   C.ar      1 RES1   0.0000
    29 H14      1.1330  10.7457  10.1266   H         1 RES1   0.0000
    30 C16      1.1240   9.1247   8.9116   C.ar      1 RES1   0.0000
    31 H15      2.0036   8.8430   9.1352   H         1 RES1   0.0000
    32 C17      2.6432   6.3012   5.5962   C.2       1 RES1   0.0000
    33 C18      4.3309   5.5666   3.9415   C.3       1 RES1   0.0000
    34 C19      4.9837   6.1885   2.7072   C.3       1 RES1   0.0000
    35 H16      4.2919   6.4150   2.0513   H         1 RES1   0.0000
    36 H17      5.6116   5.5482   2.3121   H         1 RES1   0.0000
    37 H18      5.4658   7.0013   2.9666   H         1 RES1   0.0000
    38 C20      5.3996   5.0400   4.9060   C.3       1 RES1   0.0000
    39 H19      5.9445   5.7873   5.2295   H         1 RES1   0.0000
    40 H20      5.9732   4.3974   4.4379   H         1 RES1   0.0000
    41 H21      4.9665   4.5974   5.6648   H         1 RES1   0.0000
    42 C21      3.4912   4.3859   3.4272   C.2       1 RES1   0.0000
    43 C22      1.3955   3.5926   2.4254   C.3       1 RES1   0.0000
    44 C23     -0.0371   4.1042   2.3897   C.3       1 RES1   0.0000
    45 H22     -0.3214   4.3410   3.2960   H         1 RES1   0.0000
    46 H23     -0.6247   3.4041   2.0349   H         1 RES1   0.0000
    47 H24     -0.0879   4.8952   1.8142   H         1 RES1   0.0000
    48 C24      1.8917   3.2523   1.0376   C.3       1 RES1   0.0000
    49 H25      1.8088   4.0387   0.4591   H         1 RES1   0.0000
    50 H26      1.3551   2.5189   0.6708   H         1 RES1   0.0000
    51 H27      2.8314   2.9776   1.0853   H         1 RES1   0.0000
    52 C25      1.4383   2.3395   3.3363   C.2       1 RES1   0.0000
    53 C26      1.2837   1.5440   5.6901   C.3       1 RES1   0.0000
    54 C27      1.3722   2.2062   7.0706   C.3       1 RES1   0.0000
    55 H28      2.2326   2.6672   7.1570   H         1 RES1   0.0000
    56 H29      1.2981   1.5210   7.7667   H         1 RES1   0.0000
    57 H30      0.6444   2.8546   7.1690   H         1 RES1   0.0000
    58 C28     -0.0458   0.7979   5.5202   C.3       1 RES1   0.0000
    59 H31     -0.7860   1.4405   5.5277   H         1 RES1   0.0000
    60 H32     -0.1602   0.1609   6.2566   H         1 RES1   0.0000
    61 H33     -0.0427   0.3139   4.6675   H         1 RES1   0.0000
    62 C29      2.4369   0.5380   5.6305   C.2       1 RES1   0.0000
    63 C30      4.7200  -0.0046   4.9582   C.3       1 RES1   0.0000
    64 C31      5.8181   0.6829   4.1308   C.3       1 RES1   0.0000
    65 H34      5.4542   0.9462   3.2588   H         1 RES1   0.0000
    66 H35      6.5650   0.0632   3.9997   H         1 RES1   0.0000
    67 H36      6.1343   1.4796   4.6064   H         1 RES1   0.0000
    68 C32      5.2749  -0.4300   6.3163   C.3       1 RES1   0.0000
    69 H37      5.5728   0.3621   6.8097   H         1 RES1   0.0000
    70 H38      6.0326  -1.0370   6.1836   H         1 RES1   0.0000
    71 H39      4.5747  -0.8887   6.8246   H         1 RES1   0.0000
    72 C33      4.2570  -1.2255   4.1383   C.2       1 RES1   0.0000
    73 C34      2.9411  -1.9567   2.2063   C.3       1 RES1   0.0000
    74 H40      1.9870  -2.1832   2.3345   H         1 RES1   0.0000
    75 H41      3.4707  -2.7844   2.3226   H         1 RES1   0.0000
    76 C35      3.1452  -1.4244   0.7916   C.3       1 RES1   0.0000
    77 C36      4.5380  -0.8162   0.7006   C.ar      1 RES1   0.0000
    78 C37      5.6562  -1.5762   0.9973   C.ar      1 RES1   0.0000
    79 H42      5.5434  -2.4970   1.2045   H         1 RES1   0.0000
    80 C38      6.9353  -1.0393   1.0003   C.ar      1 RES1   0.0000
    81 H43      7.6859  -1.5865   1.1986   H         1 RES1   0.0000
    82 C39      7.1043   0.3047   0.7111   C.ar      1 RES1   0.0000
    83 H44      7.9722   0.6898   0.7170   H         1 RES1   0.0000
    84 C40      6.0021   1.0818   0.4129   C.ar      1 RES1   0.0000
    85 H45      6.1133   2.0027   0.2072   H         1 RES1   0.0000
    86 C41      4.7381   0.5254   0.4129   C.ar      1 RES1   0.0000
    87 H46      3.9881   1.0749   0.2117   H         1 RES1   0.0000
    88 C42      2.9352  -2.5488  -0.2370   C.ar      1 RES1   0.0000
    89 C43      3.5200  -2.4556  -1.4773   C.ar      1 RES1   0.0000
    90 H47      4.0825  -1.7153  -1.6726   H         1 RES1   0.0000
    91 C44      3.3043  -3.4248  -2.4508   C.ar      1 RES1   0.0000
    92 H48      3.7142  -3.3466  -3.3050   H         1 RES1   0.0000
    93 C45      2.4876  -4.5089  -2.1646   C.ar      1 RES1   0.0000
    94 H49      2.3455  -5.1837  -2.8175   H         1 RES1   0.0000
    95 C46      1.8835  -4.6066  -0.9377   C.ar      1 RES1   0.0000
    96 H50      1.3050  -5.3343  -0.7469   H         1 RES1   0.0000
    97 C47      2.1235  -3.6352   0.0209   C.ar      1 RES1   0.0000
    98 H51      1.7197  -3.7191   0.8766   H         1 RES1   0.0000
    99 N1       1.4490   8.4349   5.2653   N.am      1 RES1   0.0000
   100 H52      1.6921   9.2799   5.2713   H         1 RES1   0.0000
   101 N2       3.4981   6.5690   4.5870   N.am      1 RES1   0.0000
   102 H53      3.5551   7.3991   4.3023   H         1 RES1   0.0000
   103 N3       2.2368   4.6445   3.0262   N.am      1 RES1   0.0000
   104 H54      1.9093   5.4550   3.1231   H         1 RES1   0.0000
   105 N4       1.4122   2.5809   4.6615   N.am      1 RES1   0.0000
   106 H55      1.4783   3.4167   4.9284   H         1 RES1   0.0000
   107 N5       3.6045   0.9266   5.1013   N.am      1 RES1   0.0000
   108 H56      3.7018   1.7601   4.8345   H         1 RES1   0.0000
   109 N6       3.3401  -0.9910   3.2021   N.am      1 RES1   0.0000
   110 H57      2.9545  -0.2000   3.1902   H         1 RES1   0.0000
   111 O1       0.0316   9.0615   3.6772   O.3       1 RES1   0.0000
   112 O2       0.3358   6.8415   4.0658   O.2       1 RES1   0.0000
   113 O3       2.3749   5.1481   5.9788   O.2       1 RES1   0.0000
   114 O4       4.0000   3.2650   3.3027   O.2       1 RES1   0.0000
   115 O5       1.4362   1.1991   2.8646   O.2       1 RES1   0.0000
   116 O6       2.2996  -0.5840   6.1292   O.2       1 RES1   0.0000
   117 O7       4.7824  -2.3464   4.3143   O.2       1 RES1   0.0000
   118 O8       2.1238  -0.4530   0.4767   O.3       1 RES1   0.0000
   119 H58      1.9834   0.0333   1.1479   H         1 RES1   0.0000
@<TRIPOS>BOND
     1     1     2   ar
     2     2     3    1
     3     4     2   ar
     4     5     4    1
     5     6     4   ar
     6     7     6    1
     7     8     6   ar
     8     9     8    1
     9    10     1   ar
    10    11    10    1
    11    12     1    1
    12    13    12    1
    13    14    12    1
    14    15    99   am
    15    16    17    1
    16    18    16    1
    17    19    18    1
    18    20    18    1
    19    21    18    1
    20    22    21   ar
    21    23    22    1
    22    24    22   ar
    23    25    24    1
    24    26    24   ar
    25    27    26    1
    26    28    26   ar
    27    29    28    1
    28    30    21   ar
    29    31    30    1
    30    32    16    1
    31    33    34    1
    32    34    35    1
    33    36    34    1
    34    37    34    1
    35    38    33    1
    36    39    38    1
    37    40    38    1
    38    41    38    1
    39    42    33    1
    40    43    44    1
    41    44    45    1
    42    46    44    1
    43    47    44    1
    44    48    43    1
    45    49    48    1
    46    50    48    1
    47    51    48    1
    48    52    43    1
    49    53    54    1
    50    54    55    1
    51    56    54    1
    52    57    54    1
    53    58    53    1
    54    59    58    1
    55    60    58    1
    56    61    58    1
    57    62    53    1
    58    63    64    1
    59    64    65    1
    60    66    64    1
    61    67    64    1
    62    68    63    1
    63    69    68    1
    64    70    68    1
    65    71    68    1
    66    72    63    1
    67    73    74    1
    68    75    73    1
    69    76    73    1
    70    77    76    1
    71    78    77   ar
    72    79    78    1
    73    80    78   ar
    74    81    80    1
    75    82    80   ar
    76    83    82    1
    77    84    82   ar
    78    85    84    1
    79    86    77   ar
    80    87    86    1
    81    88    76    1
    82    89    88   ar
    83    90    89    1
    84    91    89   ar
    85    92    91    1
    86    93    91   ar
    87    94    93    1
    88    95    93   ar
    89    96    95    1
    90    97    88   ar
    91    98    97    1
    92    99    16    1
    93   100    99    1
    94   101    32   am
    95   102   101    1
    96   103    42   am
    97   104   103    1
    98   105    52   am
    99   106   105    1
   100   107    62   am
   101   108   107    1
   102   109    72   am
   103   110   109    1
   104   111    12    1
   105   112    15    2
   106   113    32    2
   107   114    42    2
   108   115    52    2
   109   116    62    2
   110   117    72    2
   111   118    76    1
   112   119   118    1
   113     8    10   ar
   114    15   111    1
   115    28    30   ar
   116    33   101    1
   117    43   103    1
   118    53   105    1
   119    63   107    1
   120    73   109    1
   121    84    86   ar
   122    95    97   ar
@<TRIPOS>SUBSTRUCTURE
     1 RES1        1 GROUP             0 ****  ****    0  
@<TRIPOS>CRYSIN
   13.0719   11.4964   15.2730   90.0000  102.5620   90.0000     4     1
