@<TRIPOS>MOLECULE
02
    25    26     1     0     0
SMALL
NO_CHARGES
****
Generated from the CSD

@<TRIPOS>ATOM
     1 C35      3.1452  -1.4244   0.7916   C.3       1 RES2   0.0000
     2 C36      4.5380  -0.8162   0.7006   C.ar      1 RES2   0.0000
     3 C37      5.6562  -1.5762   0.9973   C.ar      1 RES2   0.0000
     4 H42      5.5434  -2.4970   1.2045   H         1 RES2   0.0000
     5 C38      6.9353  -1.0393   1.0003   C.ar      1 RES2   0.0000
     6 H43      7.6859  -1.5865   1.1986   H         1 RES2   0.0000
     7 C39      7.1043   0.3047   0.7111   C.ar      1 RES2   0.0000
     8 H44      7.9722   0.6898   0.7170   H         1 RES2   0.0000
     9 C40      6.0021   1.0818   0.4129   C.ar      1 RES2   0.0000
    10 H45      6.1133   2.0027   0.2072   H         1 RES2   0.0000
    11 C41      4.7381   0.5254   0.4129   C.ar      1 RES2   0.0000
    12 H46      3.9881   1.0749   0.2117   H         1 RES2   0.0000
    13 C42      2.9352  -2.5488  -0.2370   C.ar      1 RES2   0.0000
    14 C43      3.5200  -2.4556  -1.4773   C.ar      1 RES2   0.0000
    15 H47      4.0825  -1.7153  -1.6726   H         1 RES2   0.0000
    16 C44      3.3043  -3.4248  -2.4508   C.ar      1 RES2   0.0000
    17 H48      3.7142  -3.3466  -3.3050   H         1 RES2   0.0000
    18 C45      2.4876  -4.5089  -2.1646   C.ar      1 RES2   0.0000
    19 H49      2.3455  -5.1837  -2.8175   H         1 RES2   0.0000
    20 C46      1.8835  -4.6066  -0.9377   C.ar      1 RES2   0.0000
    21 H50      1.3050  -5.3343  -0.7469   H         1 RES2   0.0000
    22 C47      2.1235  -3.6352   0.0209   C.ar      1 RES2   0.0000
    23 H51      1.7197  -3.7191   0.8766   H         1 RES2   0.0000
    24 O8       2.1238  -0.4530   0.4767   O.3       1 RES2   0.0000
    25 H58      1.9834   0.0333   1.1479   H         1 RES2   0.0000
@<TRIPOS>BOND
     1     2     1    1
     2     3     2   ar
     3     4     3    1
     4     5     3   ar
     5     6     5    1
     6     7     5   ar
     7     8     7    1
     8     9     7   ar
     9    10     9    1
    10    11     2   ar
    11    12    11    1
    12    13     1    1
    13    14    13   ar
    14    15    14    1
    15    16    14   ar
    16    17    16    1
    17    18    16   ar
    18    19    18    1
    19    20    18   ar
    20    21    20    1
    21    22    13   ar
    22    23    22    1
    23    24     1    1
    24    25    24    1
    25     9    11   ar
    26    20    22   ar
@<TRIPOS>SUBSTRUCTURE
     1 RES2        1 GROUP             0 ****  ****    0  
