@<TRIPOS>MOLECULE
01
    35    36     1     0     0
SMALL
NO_CHARGES
****
Generated from the CSD

@<TRIPOS>ATOM
     1 C1      -2.3168   8.6016   3.1991   C.ar      1 RES1   0.0000
     2 C2      -3.1766   7.6371   2.6699   C.ar      1 RES1   0.0000
     3 H1      -2.8605   7.0277   2.0140   H         1 RES1   0.0000
     4 C3      -4.4857   7.5704   3.1007   C.ar      1 RES1   0.0000
     5 H2      -5.0722   6.9300   2.7176   H         1 RES1   0.0000
     6 C4      -4.9529   8.4119   4.0712   C.ar      1 RES1   0.0000
     7 H3      -5.8547   8.3533   4.3634   H         1 RES1   0.0000
     8 C5      -4.0958   9.3523   4.6243   C.ar      1 RES1   0.0000
     9 H4      -4.4064   9.9398   5.3026   H         1 RES1   0.0000
    10 C6      -2.7955   9.4293   4.1860   C.ar      1 RES1   0.0000
    11 H5      -2.2126  10.0720   4.5736   H         1 RES1   0.0000
    12 C7      -0.9164   8.7384   2.6401   C.3       1 RES1   0.0000
    13 H6      -0.6511   7.8900   2.2063   H         1 RES1   0.0000
    14 H7      -0.9057   9.4512   1.9529   H         1 RES1   0.0000
    15 C8       0.5850   8.0084   4.3321   C.2       1 RES1   0.0000
    16 C9       1.9966   7.5336   6.2686   C.3       1 RES1   0.0000
    17 H8       2.7309   8.0291   6.7337   H         1 RES1   0.0000
    18 C10      0.9748   7.1611   7.3285   C.3       1 RES1   0.0000
    19 H9       1.4063   6.5920   8.0142   H         1 RES1   0.0000
    20 H10      0.2456   6.6369   6.9111   H         1 RES1   0.0000
    21 C11      0.3898   8.3935   7.9948   C.ar      1 RES1   0.0000
    22 C12     -0.8771   8.8315   7.6907   C.ar      1 RES1   0.0000
    23 H11     -1.3990   8.3579   7.0527   H         1 RES1   0.0000
    24 C13     -1.4071   9.9697   8.3094   C.ar      1 RES1   0.0000
    25 H12     -2.2874  10.2559   8.0947   H         1 RES1   0.0000
    26 C14     -0.6745  10.6687   9.2157   C.ar      1 RES1   0.0000
    27 H13     -1.0397  11.4355   9.6406   H         1 RES1   0.0000
    28 C15      0.6055  10.2525   9.5079   C.ar      1 RES1   0.0000
    29 H14      1.1330  10.7457  10.1266   H         1 RES1   0.0000
    30 C16      1.1240   9.1247   8.9116   C.ar      1 RES1   0.0000
    31 H15      2.0036   8.8430   9.1352   H         1 RES1   0.0000
    32 N1       1.4490   8.4349   5.2653   N.am      1 RES1   0.0000
    33 H52      1.6921   9.2799   5.2713   H         1 RES1   0.0000
    34 O1       0.0316   9.0615   3.6772   O.3       1 RES1   0.0000
    35 O2       0.3358   6.8415   4.0658   O.2       1 RES1   0.0000
@<TRIPOS>BOND
     1     1     2   ar
     2     2     3    1
     3     4     2   ar
     4     5     4    1
     5     6     4   ar
     6     7     6    1
     7     8     6   ar
     8     9     8    1
     9    10     1   ar
    10    11    10    1
    11    12     1    1
    12    13    12    1
    13    14    12    1
    14    15    32   am
    15    16    17    1
    16    18    16    1
    17    19    18    1
    18    20    18    1
    19    21    18    1
    20    22    21   ar
    21    23    22    1
    22    24    22   ar
    23    25    24    1
    24    26    24   ar
    25    27    26    1
    26    28    26   ar
    27    29    28    1
    28    30    21   ar
    29    31    30    1
    30    32    16    1
    31    33    32    1
    32    34    12    1
    33    35    15    2
    34     8    10   ar
    35    15    34    1
    36    28    30   ar
@<TRIPOS>SUBSTRUCTURE
     1 RES1        1 GROUP             0 ****  ****    0  
