@<TRIPOS>MOLECULE
SIJHEZ
    92    93     1     0     0
SMALL
NO_CHARGES
****
Generated from the CSD

@<TRIPOS>ATOM
     1 C1      -4.5274   7.4905   4.9316   C.ar      1 RES1   0.0000
     2 C2      -3.6291   8.5561   5.0563   C.ar      1 RES1   0.0000
     3 C3      -4.0828   9.8855   5.0237   C.ar      1 RES1   0.0000
     4 C4      -5.4327  10.0740   4.8104   C.ar      1 RES1   0.0000
     5 C5      -6.3579   9.0444   4.6124   C.ar      1 RES1   0.0000
     6 C6      -5.8830   7.7649   4.6866   C.ar      1 RES1   0.0000
     7 C7      -4.0299   6.1040   5.1084   C.2       1 RES1   0.0000
     8 C8      -4.5100   3.7131   5.3835   C.3       1 RES1   0.0000
     9 C9      -4.7540   3.1377   6.7701   C.3       1 RES1   0.0000
    10 C10     -6.2007   2.9313   7.0983   C.3       1 RES1   0.0000
    11 C11     -6.4251   2.0258   8.2936   C.3       1 RES1   0.0000
    12 C12     -6.9517   3.0260  10.4697   C.2       1 RES1   0.0000
    13 C13     -6.4886   3.5756  11.7621   C.ar      1 RES1   0.0000
    14 C14     -7.4192   4.1523  12.6402   C.ar      1 RES1   0.0000
    15 C15     -7.0062   4.7376  13.8458   C.ar      1 RES1   0.0000
    16 C16     -5.6585   4.6869  14.1244   C.ar      1 RES1   0.0000
    17 C17     -4.6954   4.0879  13.3122   C.ar      1 RES1   0.0000
    18 C18     -5.1400   3.5516  12.1375   C.ar      1 RES1   0.0000
    19 C19     -7.8330   9.3921   4.3825   C.3       1 RES1   0.0000
    20 C20     -7.9861  10.4489   3.3354   C.3       1 RES1   0.0000
    21 H1      -7.5952  10.1445   2.5134   H         1 RES1   0.0000
    22 H2      -7.5420  11.2506   3.6227   H         1 RES1   0.0000
    23 H3      -8.9191  10.6313   3.1992   H         1 RES1   0.0000
    24 C21     -8.4210   9.8438   5.6918   C.3       1 RES1   0.0000
    25 H4      -8.3090   9.1519   6.3479   H         1 RES1   0.0000
    26 H5      -9.3563  10.0268   5.5778   H         1 RES1   0.0000
    27 H6      -7.9724  10.6395   5.9866   H         1 RES1   0.0000
    28 C22     -8.6318   8.1927   3.9027   C.3       1 RES1   0.0000
    29 H7      -8.2699   7.8797   3.0703   H         1 RES1   0.0000
    30 H8      -9.5486   8.4473   3.7768   H         1 RES1   0.0000
    31 H9      -8.5813   7.4923   4.5573   H         1 RES1   0.0000
    32 C23     -3.1277  11.0723   5.2146   C.3       1 RES1   0.0000
    33 C24     -3.8836  12.3990   5.2830   C.3       1 RES1   0.0000
    34 H10     -4.3867  12.5222   4.4744   H         1 RES1   0.0000
    35 H11     -3.2583  13.1190   5.3852   H         1 RES1   0.0000
    36 H12     -4.4825  12.3871   6.0340   H         1 RES1   0.0000
    37 C25     -2.1562  11.1453   4.0339   C.3       1 RES1   0.0000
    38 H13     -2.6524  11.2342   3.2169   H         1 RES1   0.0000
    39 H14     -1.6297  10.3437   4.0034   H         1 RES1   0.0000
    40 H15     -1.5779  11.9037   4.1411   H         1 RES1   0.0000
    41 C26     -2.3492  10.9244   6.5203   C.3       1 RES1   0.0000
    42 H16     -2.9645  10.8787   7.2558   H         1 RES1   0.0000
    43 H17     -1.7693  11.6800   6.6353   H         1 RES1   0.0000
    44 H18     -1.8255  10.1202   6.4916   H         1 RES1   0.0000
    45 C27     -8.0091   5.3857  14.8170   C.3       1 RES1   0.0000
    46 C28     -8.7378   6.5318  14.0985   C.3       1 RES1   0.0000
    47 H19     -8.0957   7.1777  13.7934   H         1 RES1   0.0000
    48 H20     -9.3493   6.9527  14.7057   H         1 RES1   0.0000
    49 H21     -9.2215   6.1825  13.3461   H         1 RES1   0.0000
    50 C29     -9.0158   4.3508  15.3056   C.3       1 RES1   0.0000
    51 H22     -9.6376   4.7690  15.9054   H         1 RES1   0.0000
    52 H23     -8.5533   3.6455  15.7647   H         1 RES1   0.0000
    53 H24     -9.4903   3.9869  14.5547   H         1 RES1   0.0000
    54 C30     -7.3160   5.9696  16.0387   C.3       1 RES1   0.0000
    55 H25     -6.6779   6.6304  15.7603   H         1 RES1   0.0000
    56 H26     -6.8637   5.2703  16.5156   H         1 RES1   0.0000
    57 H27     -7.9684   6.3780  16.6134   H         1 RES1   0.0000
    58 C31     -3.2209   4.1017  13.7199   C.3       1 RES1   0.0000
    59 C32     -3.0564   3.8700  15.1915   C.3       1 RES1   0.0000
    60 H28     -3.4423   3.0236  15.4270   H         1 RES1   0.0000
    61 H29     -3.4989   4.5697  15.6773   H         1 RES1   0.0000
    62 H30     -2.1227   3.8693  15.4122   H         1 RES1   0.0000
    63 C33     -2.4487   3.0031  13.0365   C.3       1 RES1   0.0000
    64 H31     -2.5171   3.1085  12.0857   H         1 RES1   0.0000
    65 H32     -2.8105   2.1514  13.2913   H         1 RES1   0.0000
    66 H33     -1.5263   3.0502  13.2987   H         1 RES1   0.0000
    67 C34     -2.6264   5.4094  13.3002   C.3       1 RES1   0.0000
    68 H34     -2.7292   5.5175  12.3523   H         1 RES1   0.0000
    69 H35     -1.6919   5.4223  13.5238   H         1 RES1   0.0000
    70 H36     -3.0746   6.1259  13.7549   H         1 RES1   0.0000
    71 N1      -4.9091   5.1126   5.2448   N.am      1 RES1   0.0000
    72 N2      -6.0557   2.6156   9.5736   N.am      1 RES1   0.0000
    73 O1      -2.3015   8.3292   5.2047   O.3       1 RES1   0.0000
    74 O2      -8.7396   4.1710  12.3326   O.3       1 RES1   0.0000
    75 O3      -2.8034   5.8600   5.1570   O.2       1 RES1   0.0000
    76 O4      -8.1716   2.9721  10.1914   O.2       1 RES1   0.0000
    77 H37     -4.5479   3.1280  11.5377   H         1 RES1   0.0000
    78 H38     -6.4715   7.0158   4.5277   H         1 RES1   0.0000
    79 H39     -5.3855   5.0380  14.9427   H         1 RES1   0.0000
    80 H40     -5.7745  10.9519   4.7587   H         1 RES1   0.0000
    81 H41     -5.7597   5.2981   5.2105   H         1 RES1   0.0000
    82 H42     -5.2033   2.5922   9.8122   H         1 RES1   0.0000
    83 H43     -2.2547   7.3832   5.2431   H         1 RES1   0.0000
    84 H44     -7.4136   1.8340   8.3385   H         1 RES1   0.0000
    85 H45     -6.6430   3.8404   7.2425   H         1 RES1   0.0000
    86 H46     -4.3292   3.7501   7.5017   H         1 RES1   0.0000
    87 H47     -5.9252   1.1658   8.1904   H         1 RES1   0.0000
    88 H48     -4.3460   2.2047   6.8130   H         1 RES1   0.0000
    89 H49     -3.4857   3.6576   5.1986   H         1 RES1   0.0000
    90 H50     -6.5824   2.5112   6.2206   H         1 RES1   0.0000
    91 H51     -5.0044   3.2661   4.7410   H         1 RES1   0.0000
    92 H52     -8.7403   3.7414  11.4488   H         1 RES1   0.0000
@<TRIPOS>BOND
     1     1     2   ar
     2     2     3   ar
     3     3     4   ar
     4     4     5   ar
     5     5     6   ar
     6     6     1   ar
     7     7     1    1
     8     8     9    1
     9     9    10    1
    10    10    11    1
    11    11    72    1
    12    12    13    1
    13    13    14   ar
    14    14    15   ar
    15    15    16   ar
    16    16    17   ar
    17    17    18   ar
    18    18    13   ar
    19    19     5    1
    20    20    19    1
    21    21    20    1
    22    22    20    1
    23    23    20    1
    24    24    19    1
    25    25    24    1
    26    26    24    1
    27    27    24    1
    28    28    19    1
    29    29    28    1
    30    30    28    1
    31    31    28    1
    32    32     3    1
    33    33    32    1
    34    34    33    1
    35    35    33    1
    36    36    33    1
    37    37    32    1
    38    38    37    1
    39    39    37    1
    40    40    37    1
    41    41    32    1
    42    42    41    1
    43    43    41    1
    44    44    41    1
    45    45    15    1
    46    46    45    1
    47    47    46    1
    48    48    46    1
    49    49    46    1
    50    50    45    1
    51    51    50    1
    52    52    50    1
    53    53    50    1
    54    54    45    1
    55    55    54    1
    56    56    54    1
    57    57    54    1
    58    58    17    1
    59    59    58    1
    60    60    59    1
    61    61    59    1
    62    62    59    1
    63    63    58    1
    64    64    63    1
    65    65    63    1
    66    66    63    1
    67    67    58    1
    68    68    67    1
    69    69    67    1
    70    70    67    1
    71    71     7   am
    72    72    12   am
    73    73     2    1
    74    74    14    1
    75    75     7    2
    76    76    12    2
    77    77    18    1
    78    78     6    1
    79    79    16    1
    80    80     4    1
    81    81    71    1
    82    82    72    1
    83    83    73    1
    84    84    11    1
    85    85    10    1
    86    86     9    1
    87    87    11    1
    88    88     9    1
    89    89     8    1
    90    90    10    1
    91    91     8    1
    92    92    74    1
    93     8    71    1
@<TRIPOS>SUBSTRUCTURE
     1 RES1        1 GROUP             0 ****  ****    0  
@<TRIPOS>CRYSIN
   10.0092   11.2895   15.5109   98.9000  102.0400  104.0000     2     1
