@<TRIPOS>MOLECULE
01
    36    36     1     0     0
SMALL
NO_CHARGES
****
Generated from the CSD

@<TRIPOS>ATOM
     1 C1      -4.5274   7.4905   4.9316   C.ar      1 RES1   0.0000
     2 C2      -3.6291   8.5561   5.0563   C.ar      1 RES1   0.0000
     3 C3      -4.0828   9.8855   5.0237   C.ar      1 RES1   0.0000
     4 C4      -5.4327  10.0740   4.8104   C.ar      1 RES1   0.0000
     5 C5      -6.3579   9.0444   4.6124   C.ar      1 RES1   0.0000
     6 C6      -5.8830   7.7649   4.6866   C.ar      1 RES1   0.0000
     7 C19     -7.8330   9.3921   4.3825   C.3       1 RES1   0.0000
     8 C20     -7.9861  10.4489   3.3354   C.3       1 RES1   0.0000
     9 H1      -7.5952  10.1445   2.5134   H         1 RES1   0.0000
    10 H2      -7.5420  11.2506   3.6227   H         1 RES1   0.0000
    11 H3      -8.9191  10.6313   3.1992   H         1 RES1   0.0000
    12 C21     -8.4210   9.8438   5.6918   C.3       1 RES1   0.0000
    13 H4      -8.3090   9.1519   6.3479   H         1 RES1   0.0000
    14 H5      -9.3563  10.0268   5.5778   H         1 RES1   0.0000
    15 H6      -7.9724  10.6395   5.9866   H         1 RES1   0.0000
    16 C22     -8.6318   8.1927   3.9027   C.3       1 RES1   0.0000
    17 H7      -8.2699   7.8797   3.0703   H         1 RES1   0.0000
    18 H8      -9.5486   8.4473   3.7768   H         1 RES1   0.0000
    19 H9      -8.5813   7.4923   4.5573   H         1 RES1   0.0000
    20 C23     -3.1277  11.0723   5.2146   C.3       1 RES1   0.0000
    21 C24     -3.8836  12.3990   5.2830   C.3       1 RES1   0.0000
    22 H10     -4.3867  12.5222   4.4744   H         1 RES1   0.0000
    23 H11     -3.2583  13.1190   5.3852   H         1 RES1   0.0000
    24 H12     -4.4825  12.3871   6.0340   H         1 RES1   0.0000
    25 C25     -2.1562  11.1453   4.0339   C.3       1 RES1   0.0000
    26 H13     -2.6524  11.2342   3.2169   H         1 RES1   0.0000
    27 H14     -1.6297  10.3437   4.0034   H         1 RES1   0.0000
    28 H15     -1.5779  11.9037   4.1411   H         1 RES1   0.0000
    29 C26     -2.3492  10.9244   6.5203   C.3       1 RES1   0.0000
    30 H16     -2.9645  10.8787   7.2558   H         1 RES1   0.0000
    31 H17     -1.7693  11.6800   6.6353   H         1 RES1   0.0000
    32 H18     -1.8255  10.1202   6.4916   H         1 RES1   0.0000
    33 O1      -2.3015   8.3292   5.2047   O.3       1 RES1   0.0000
    34 H38     -6.4715   7.0158   4.5277   H         1 RES1   0.0000
    35 H40     -5.7745  10.9519   4.7587   H         1 RES1   0.0000
    36 H43     -2.2547   7.3832   5.2431   H         1 RES1   0.0000
@<TRIPOS>BOND
     1     1     2   ar
     2     2     3   ar
     3     3     4   ar
     4     4     5   ar
     5     5     6   ar
     6     6     1   ar
     7     7     5    1
     8     8     7    1
     9     9     8    1
    10    10     8    1
    11    11     8    1
    12    12     7    1
    13    13    12    1
    14    14    12    1
    15    15    12    1
    16    16     7    1
    17    17    16    1
    18    18    16    1
    19    19    16    1
    20    20     3    1
    21    21    20    1
    22    22    21    1
    23    23    21    1
    24    24    21    1
    25    25    20    1
    26    26    25    1
    27    27    25    1
    28    28    25    1
    29    29    20    1
    30    30    29    1
    31    31    29    1
    32    32    29    1
    33    33     2    1
    34    34     6    1
    35    35     4    1
    36    36    33    1
@<TRIPOS>SUBSTRUCTURE
     1 RES1        1 GROUP             0 ****  ****    0  
