@<TRIPOS>MOLECULE
02
    36    36     1     0     0
SMALL
NO_CHARGES
****
Generated from the CSD

@<TRIPOS>ATOM
     1 C13     -6.4886   3.5756  11.7621   C.ar      1 RES2   0.0000
     2 C14     -7.4192   4.1523  12.6402   C.ar      1 RES2   0.0000
     3 C15     -7.0062   4.7376  13.8458   C.ar      1 RES2   0.0000
     4 C16     -5.6585   4.6869  14.1244   C.ar      1 RES2   0.0000
     5 C17     -4.6954   4.0879  13.3122   C.ar      1 RES2   0.0000
     6 C18     -5.1400   3.5516  12.1375   C.ar      1 RES2   0.0000
     7 C27     -8.0091   5.3857  14.8170   C.3       1 RES2   0.0000
     8 C28     -8.7378   6.5318  14.0985   C.3       1 RES2   0.0000
     9 H19     -8.0957   7.1777  13.7934   H         1 RES2   0.0000
    10 H20     -9.3493   6.9527  14.7057   H         1 RES2   0.0000
    11 H21     -9.2215   6.1825  13.3461   H         1 RES2   0.0000
    12 C29     -9.0158   4.3508  15.3056   C.3       1 RES2   0.0000
    13 H22     -9.6376   4.7690  15.9054   H         1 RES2   0.0000
    14 H23     -8.5533   3.6455  15.7647   H         1 RES2   0.0000
    15 H24     -9.4903   3.9869  14.5547   H         1 RES2   0.0000
    16 C30     -7.3160   5.9696  16.0387   C.3       1 RES2   0.0000
    17 H25     -6.6779   6.6304  15.7603   H         1 RES2   0.0000
    18 H26     -6.8637   5.2703  16.5156   H         1 RES2   0.0000
    19 H27     -7.9684   6.3780  16.6134   H         1 RES2   0.0000
    20 C31     -3.2209   4.1017  13.7199   C.3       1 RES2   0.0000
    21 C32     -3.0564   3.8700  15.1915   C.3       1 RES2   0.0000
    22 H28     -3.4423   3.0236  15.4270   H         1 RES2   0.0000
    23 H29     -3.4989   4.5697  15.6773   H         1 RES2   0.0000
    24 H30     -2.1227   3.8693  15.4122   H         1 RES2   0.0000
    25 C33     -2.4487   3.0031  13.0365   C.3       1 RES2   0.0000
    26 H31     -2.5171   3.1085  12.0857   H         1 RES2   0.0000
    27 H32     -2.8105   2.1514  13.2913   H         1 RES2   0.0000
    28 H33     -1.5263   3.0502  13.2987   H         1 RES2   0.0000
    29 C34     -2.6264   5.4094  13.3002   C.3       1 RES2   0.0000
    30 H34     -2.7292   5.5175  12.3523   H         1 RES2   0.0000
    31 H35     -1.6919   5.4223  13.5238   H         1 RES2   0.0000
    32 H36     -3.0746   6.1259  13.7549   H         1 RES2   0.0000
    33 O2      -8.7396   4.1710  12.3326   O.3       1 RES2   0.0000
    34 H37     -4.5479   3.1280  11.5377   H         1 RES2   0.0000
    35 H39     -5.3855   5.0380  14.9427   H         1 RES2   0.0000
    36 H52     -8.7403   3.7414  11.4488   H         1 RES2   0.0000
@<TRIPOS>BOND
     1     1     2   ar
     2     2     3   ar
     3     3     4   ar
     4     4     5   ar
     5     5     6   ar
     6     6     1   ar
     7     7     3    1
     8     8     7    1
     9     9     8    1
    10    10     8    1
    11    11     8    1
    12    12     7    1
    13    13    12    1
    14    14    12    1
    15    15    12    1
    16    16     7    1
    17    17    16    1
    18    18    16    1
    19    19    16    1
    20    20     5    1
    21    21    20    1
    22    22    21    1
    23    23    21    1
    24    24    21    1
    25    25    20    1
    26    26    25    1
    27    27    25    1
    28    28    25    1
    29    29    20    1
    30    30    29    1
    31    31    29    1
    32    32    29    1
    33    33     2    1
    34    34     6    1
    35    35     4    1
    36    36    33    1
@<TRIPOS>SUBSTRUCTURE
     1 RES2        1 GROUP             0 ****  ****    0  
