@<TRIPOS>MOLECULE
SUVGUO01
    54    56     1     0     0
SMALL
NO_CHARGES
****
Generated from the CSD

@<TRIPOS>ATOM
     1 N1      12.6834   1.8328  10.4292   N.ar      1 RES1   0.0000
     2 C1      12.1792   2.7847   9.6105   C.ar      1 RES1   0.0000
     3 H1      12.8288   3.3413   9.1969   H         1 RES1   0.0000
     4 N2      10.9108   3.0655   9.2913   N.ar      1 RES1   0.0000
     5 C2      10.0543   2.2528   9.9476   C.ar      1 RES1   0.0000
     6 C3      10.4272   1.2339  10.8232   C.ar      1 RES1   0.0000
     7 C4      11.8007   1.0077  11.0417   C.ar      1 RES1   0.0000
     8 N3      12.2477   0.0236  11.8287   N.pl3     1 RES1   0.0000
     9 H2      13.1542  -0.1740  11.8680   H         1 RES1   0.0000
    10 H3      11.6163  -0.3604  12.2302   H         1 RES1   0.0000
    11 N4       9.2862   0.6076  11.3221   N.2       1 RES1   0.0000
    12 C5       8.2832   1.2389  10.7375   C.2       1 RES1   0.0000
    13 H4       7.3707   1.0181  10.8857   H         1 RES1   0.0000
    14 N5       8.6845   2.2342   9.9024   N.pl3     1 RES1   0.0000
    15 C6       7.7979   3.1873   9.2266   C.3       1 RES1   0.0000
    16 H5       6.9087   2.7711   9.0954   H         1 RES1   0.0000
    17 H6       8.1680   3.4039   8.3345   H         1 RES1   0.0000
    18 C7       7.6400   4.4746  10.0366   C.3       1 RES1   0.0000
    19 H7       8.5013   4.9624  10.0287   H         1 RES1   0.0000
    20 H8       6.9660   5.0485   9.5933   H         1 RES1   0.0000
    21 C8       7.2167   4.2509  11.4843   C.3       1 RES1   0.0000
    22 H9       7.9393   3.7667  11.9576   H         1 RES1   0.0000
    23 H10      6.4109   3.6757  11.4969   H         1 RES1   0.0000
    24 S1       6.8568   5.7813  12.3767   S.3       1 RES1   0.0000
    25 C9       5.2033   6.1881  11.7286   C.3       1 RES1   0.0000
    26 H11      4.9996   7.1332  11.9411   H         1 RES1   0.0000
    27 H12      5.2143   6.0964  10.7429   H         1 RES1   0.0000
    28 C10      4.1105   5.3183  12.2850   C.3       1 RES1   0.0000
    29 H13      4.1365   5.3655  13.2735   H         1 RES1   0.0000
    30 H14      4.2837   4.3799  12.0231   H         1 RES1   0.0000
    31 S2       2.4433   5.7926  11.7151   S.3       1 RES1   0.0000
    32 C11      2.1820   7.2891  12.6978   C.3       1 RES1   0.0000
    33 H15      2.9998   7.8449  12.6616   H         1 RES1   0.0000
    34 H16      1.4426   7.8118  12.2974   H         1 RES1   0.0000
    35 C12      1.8466   6.9934  14.1567   C.3       1 RES1   0.0000
    36 H17      2.5602   6.4254  14.5426   H         1 RES1   0.0000
    37 H18      0.9995   6.4824  14.1959   H         1 RES1   0.0000
    38 C13      1.7052   8.2596  15.0031   C.3       1 RES1   0.0000
    39 H19      1.4337   8.0087  15.9215   H         1 RES1   0.0000
    40 H20      2.5827   8.7142  15.0584   H         1 RES1   0.0000
    41 N6       0.7094   9.1928  14.4402   N.am      1 RES1   0.0000
    42 C14      1.1479  10.2664  13.6930   C.2       1 RES1   0.0000
    43 O1       2.3333  10.5186  13.5111   O.2       1 RES1   0.0000
    44 N7       0.1446  11.0206  13.1426   N.am      1 RES1   0.0000
    45 H21      0.3958  11.6432  12.6801   H         1 RES1   0.0000
    46 C15     -1.2089  10.8330  13.2562   C.2       1 RES1   0.0000
    47 O2      -1.9752  11.6133  12.6743   O.2       1 RES1   0.0000
    48 C16     -1.6122   9.6848  14.0373   C.2       1 RES1   0.0000
    49 C17     -0.6385   8.9306  14.5733   C.2       1 RES1   0.0000
    50 H22     -0.8951   8.1670  15.0769   H         1 RES1   0.0000
    51 C18     -3.0665   9.3891  14.2030   C.3       1 RES1   0.0000
    52 H23     -3.1748   8.5078  14.6195   H         1 RES1   0.0000
    53 H24     -3.5029   9.3914  13.3262   H         1 RES1   0.0000
    54 H25     -3.4759  10.0720  14.7744   H         1 RES1   0.0000
@<TRIPOS>BOND
     1     1     2   ar
     2     2     3    1
     3     4     2   ar
     4     5     4   ar
     5     6     5   ar
     6     7     1   ar
     7     8     7    1
     8     9     8    1
     9    10     8    1
    10    11     6    1
    11    12    11    2
    12    13    12    1
    13    14     5    1
    14    15    14    1
    15    16    15    1
    16    17    15    1
    17    18    15    1
    18    19    18    1
    19    20    18    1
    20    21    18    1
    21    22    21    1
    22    23    21    1
    23    24    21    1
    24    25    24    1
    25    26    25    1
    26    27    25    1
    27    28    25    1
    28    29    28    1
    29    30    28    1
    30    31    28    1
    31    32    31    1
    32    33    32    1
    33    34    32    1
    34    35    32    1
    35    36    35    1
    36    37    35    1
    37    38    35    1
    38    39    38    1
    39    40    38    1
    40    41    38    1
    41    42    41   am
    42    43    42    2
    43    44    42   am
    44    45    44    1
    45    46    44   am
    46    47    46    2
    47    48    46    1
    48    49    41    1
    49    50    49    1
    50    51    48    1
    51    52    51    1
    52    53    51    1
    53    54    51    1
    54     6     7   ar
    55    12    14    1
    56    48    49    2
@<TRIPOS>SUBSTRUCTURE
     1 RES1        1 GROUP             0 ****  ****    0  
@<TRIPOS>CRYSIN
    8.4300   12.4260   19.5060   90.0000   93.2360   90.0000    14     1
