@<TRIPOS>MOLECULE
02
    14    14     1     0     0
SMALL
NO_CHARGES
****
Generated from the CSD

@<TRIPOS>ATOM
     1 N6       0.7094   9.1928  14.4402   N.am      1 RES2   0.0000
     2 C14      1.1479  10.2664  13.6930   C.2       1 RES2   0.0000
     3 O1       2.3333  10.5186  13.5111   O.2       1 RES2   0.0000
     4 N7       0.1446  11.0206  13.1426   N.am      1 RES2   0.0000
     5 H21      0.3958  11.6432  12.6801   H         1 RES2   0.0000
     6 C15     -1.2089  10.8330  13.2562   C.2       1 RES2   0.0000
     7 O2      -1.9752  11.6133  12.6743   O.2       1 RES2   0.0000
     8 C16     -1.6122   9.6848  14.0373   C.2       1 RES2   0.0000
     9 C17     -0.6385   8.9306  14.5733   C.2       1 RES2   0.0000
    10 H22     -0.8951   8.1670  15.0769   H         1 RES2   0.0000
    11 C18     -3.0665   9.3891  14.2030   C.3       1 RES2   0.0000
    12 H23     -3.1748   8.5078  14.6195   H         1 RES2   0.0000
    13 H24     -3.5029   9.3914  13.3262   H         1 RES2   0.0000
    14 H25     -3.4759  10.0720  14.7744   H         1 RES2   0.0000
@<TRIPOS>BOND
     1     2     1   am
     2     3     2    2
     3     4     2   am
     4     5     4    1
     5     6     4   am
     6     7     6    2
     7     8     6    1
     8     9     1    1
     9    10     9    1
    10    11     8    1
    11    12    11    1
    12    13    11    1
    13    14    11    1
    14     8     9    2
@<TRIPOS>SUBSTRUCTURE
     1 RES2        1 GROUP             0 ****  ****    0  
