@<TRIPOS>MOLECULE
01
    14    15     1     0     0
SMALL
NO_CHARGES
****
Generated from the CSD

@<TRIPOS>ATOM
     1 N1       4.7572   4.8414  21.0690   N.ar      1 RES1   0.0000
     2 C1       4.2442   3.9460  20.2050   C.ar      1 RES1   0.0000
     3 H1       3.5948   3.3665  20.5870   H         1 RES1   0.0000
     4 N2       4.4805   3.7205  18.9058   N.ar      1 RES1   0.0000
     5 C2       5.4205   4.6031  18.4878   C.ar      1 RES1   0.0000
     6 C3       6.0439   5.5820  19.2131   C.ar      1 RES1   0.0000
     7 C4       5.7178   5.6894  20.5793   C.ar      1 RES1   0.0000
     8 N3       6.2771   6.5710  21.3997   N.pl3     1 RES1   0.0000
     9 H2       6.8219   7.1862  21.1018   H         1 RES1   0.0000
    10 H3       6.1753   6.4832  22.2668   H         1 RES1   0.0000
    11 N4       6.9791   6.2547  18.4223   N.2       1 RES1   0.0000
    12 C5       6.8674   5.6879  17.2370   C.2       1 RES1   0.0000
    13 H4       7.3774   5.9546  16.4812   H         1 RES1   0.0000
    14 N5       5.9549   4.6852  17.2074   N.2       1 RES1   0.0000
@<TRIPOS>BOND
     1     1     2   ar
     2     2     3    1
     3     4     2   ar
     4     5     4   ar
     5     6     5   ar
     6     7     1   ar
     7     8     7    1
     8     9     8    1
     9    10     8    1
    10    11     6    1
    11    12    11    2
    12    13    12    1
    13    14     5    1
    14     6     7   ar
    15    12    14    1
@<TRIPOS>SUBSTRUCTURE
     1 RES1        1 GROUP             0 ****  ****    0  
