@<TRIPOS>MOLECULE
01
    14    15     1     0     0
SMALL
NO_CHARGES
****
Generated from the CSD

@<TRIPOS>ATOM
     1 N1      12.6834   1.8328  10.4292   N.ar      1 RES1   0.0000
     2 C1      12.1792   2.7847   9.6105   C.ar      1 RES1   0.0000
     3 H1      12.8288   3.3413   9.1969   H         1 RES1   0.0000
     4 N2      10.9108   3.0655   9.2913   N.ar      1 RES1   0.0000
     5 C2      10.0543   2.2528   9.9476   C.ar      1 RES1   0.0000
     6 C3      10.4272   1.2339  10.8232   C.ar      1 RES1   0.0000
     7 C4      11.8007   1.0077  11.0417   C.ar      1 RES1   0.0000
     8 N3      12.2477   0.0236  11.8287   N.pl3     1 RES1   0.0000
     9 H2      13.1542  -0.1740  11.8680   H         1 RES1   0.0000
    10 H3      11.6163  -0.3604  12.2302   H         1 RES1   0.0000
    11 N4       9.2862   0.6076  11.3221   N.2       1 RES1   0.0000
    12 C5       8.2832   1.2389  10.7375   C.2       1 RES1   0.0000
    13 H4       7.3707   1.0181  10.8857   H         1 RES1   0.0000
    14 N5       8.6845   2.2342   9.9024   N.2       1 RES1   0.0000
@<TRIPOS>BOND
     1     1     2   ar
     2     2     3    1
     3     4     2   ar
     4     5     4   ar
     5     6     5   ar
     6     7     1   ar
     7     8     7    1
     8     9     8    1
     9    10     8    1
    10    11     6    1
    11    12    11    2
    12    13    12    1
    13    14     5    1
    14     6     7   ar
    15    12    14    1
@<TRIPOS>SUBSTRUCTURE
     1 RES1        1 GROUP             0 ****  ****    0  
