@<TRIPOS>MOLECULE
02
    14    14     1     0     0
SMALL
NO_CHARGES
****
Generated from the CSD

@<TRIPOS>ATOM
     1 N6       2.9023   2.7373   4.2734   N.am      1 RES2   0.0000
     2 C14      1.9887   1.7009   4.3061   C.2       1 RES2   0.0000
     3 O1       1.3950   1.3684   5.3246   O.2       1 RES2   0.0000
     4 N7       1.8046   1.0520   3.0974   N.am      1 RES2   0.0000
     5 H21      1.3229   0.3173   3.1037   H         1 RES2   0.0000
     6 O2       2.0392   0.7401   0.8734   O.2       1 RES2   0.0000
     7 C15      2.3716   1.3830   1.8809   C.2       1 RES2   0.0000
     8 C16      3.3129   2.4737   1.9043   C.2       1 RES2   0.0000
     9 C17      3.5412   3.0868   3.0943   C.2       1 RES2   0.0000
    10 H22      4.1734   3.7954   3.1194   H         1 RES2   0.0000
    11 C18      3.9414   2.9111   0.6254   C.3       1 RES2   0.0000
    12 H23      3.2583   3.2995   0.0412   H         1 RES2   0.0000
    13 H24      4.3515   2.1392   0.1816   H         1 RES2   0.0000
    14 H25      4.6310   3.5828   0.8134   H         1 RES2   0.0000
@<TRIPOS>BOND
     1     2     1   am
     2     3     2    2
     3     4     2   am
     4     5     4    1
     5     6     7    2
     6     7     4   am
     7     8     7    1
     8     9     1    1
     9    10     9    1
    10    11     8    1
    11    12    11    1
    12    13    11    1
    13    14    11    1
    14     8     9    2
@<TRIPOS>SUBSTRUCTURE
     1 RES2        1 GROUP             0 ****  ****    0  
