@<TRIPOS>MOLECULE
SUVGUO
    54    56     1     0     0
SMALL
NO_CHARGES
****
Generated from the CSD

@<TRIPOS>ATOM
     1 N1       4.7572   4.8414  21.0690   N.ar      1 RES1   0.0000
     2 C1       4.2442   3.9460  20.2050   C.ar      1 RES1   0.0000
     3 H1       3.5948   3.3665  20.5870   H         1 RES1   0.0000
     4 N2       4.4805   3.7205  18.9058   N.ar      1 RES1   0.0000
     5 C2       5.4205   4.6031  18.4878   C.ar      1 RES1   0.0000
     6 C3       6.0439   5.5820  19.2131   C.ar      1 RES1   0.0000
     7 C4       5.7178   5.6894  20.5793   C.ar      1 RES1   0.0000
     8 N3       6.2771   6.5710  21.3997   N.pl3     1 RES1   0.0000
     9 H2       6.8219   7.1862  21.1018   H         1 RES1   0.0000
    10 H3       6.1753   6.4832  22.2668   H         1 RES1   0.0000
    11 N4       6.9791   6.2547  18.4223   N.2       1 RES1   0.0000
    12 C5       6.8674   5.6879  17.2370   C.2       1 RES1   0.0000
    13 H4       7.3774   5.9546  16.4812   H         1 RES1   0.0000
    14 N5       5.9549   4.6852  17.2074   N.pl3     1 RES1   0.0000
    15 C6       5.6324   3.8430  16.0423   C.3       1 RES1   0.0000
    16 H5       5.1320   3.0446  16.3432   H         1 RES1   0.0000
    17 H6       6.4746   3.5339  15.6201   H         1 RES1   0.0000
    18 C7       4.8018   4.6036  15.0099   C.3       1 RES1   0.0000
    19 H7       5.2553   5.4510  14.7738   H         1 RES1   0.0000
    20 H8       3.9156   4.8250  15.3938   H         1 RES1   0.0000
    21 C8       4.6171   3.7503  13.7497   C.3       1 RES1   0.0000
    22 H9       4.1710   2.8988  13.9873   H         1 RES1   0.0000
    23 H10      5.5012   3.5375  13.3600   H         1 RES1   0.0000
    24 S1       3.6116   4.6456  12.5301   S.3       1 RES1   0.0000
    25 C9       3.7946   3.5506  11.0905   C.3       1 RES1   0.0000
    26 H11      3.6577   2.6149  11.3836   H         1 RES1   0.0000
    27 H12      3.0845   3.7665  10.4350   H         1 RES1   0.0000
    28 C10      5.1471   3.6565  10.4027   C.3       1 RES1   0.0000
    29 H13      5.8588   3.4020  11.0409   H         1 RES1   0.0000
    30 H14      5.3020   4.5961  10.1311   H         1 RES1   0.0000
    31 S2       5.2459   2.5830   8.9318   S.3       1 RES1   0.0000
    32 C11      4.2480   3.5350   7.7576   C.3       1 RES1   0.0000
    33 H15      3.3723   3.7568   8.1667   H         1 RES1   0.0000
    34 H16      4.7081   4.3822   7.5363   H         1 RES1   0.0000
    35 C12      4.0287   2.7168   6.4849   C.3       1 RES1   0.0000
    36 H17      4.9019   2.5224   6.0612   H         1 RES1   0.0000
    37 H18      3.5977   1.8551   6.7132   H         1 RES1   0.0000
    38 C13      3.1537   3.4857   5.5180   C.3       1 RES1   0.0000
    39 H19      2.2870   3.6876   5.9553   H         1 RES1   0.0000
    40 H20      3.5892   4.3459   5.2979   H         1 RES1   0.0000
    41 N6       2.9023   2.7373   4.2734   N.am      1 RES1   0.0000
    42 C14      1.9887   1.7009   4.3061   C.2       1 RES1   0.0000
    43 O1       1.3950   1.3684   5.3246   O.2       1 RES1   0.0000
    44 N7       1.8046   1.0520   3.0974   N.am      1 RES1   0.0000
    45 H21      1.3229   0.3173   3.1037   H         1 RES1   0.0000
    46 O2       2.0392   0.7401   0.8734   O.2       1 RES1   0.0000
    47 C15      2.3716   1.3830   1.8809   C.2       1 RES1   0.0000
    48 C16      3.3129   2.4737   1.9043   C.2       1 RES1   0.0000
    49 C17      3.5412   3.0868   3.0943   C.2       1 RES1   0.0000
    50 H22      4.1734   3.7954   3.1194   H         1 RES1   0.0000
    51 C18      3.9414   2.9111   0.6254   C.3       1 RES1   0.0000
    52 H23      3.2583   3.2995   0.0412   H         1 RES1   0.0000
    53 H24      4.3515   2.1392   0.1816   H         1 RES1   0.0000
    54 H25      4.6310   3.5828   0.8134   H         1 RES1   0.0000
@<TRIPOS>BOND
     1     1     2   ar
     2     2     3    1
     3     4     2   ar
     4     5     4   ar
     5     6     5   ar
     6     7     1   ar
     7     8     7    1
     8     9     8    1
     9    10     8    1
    10    11     6    1
    11    12    11    2
    12    13    12    1
    13    14     5    1
    14    15    14    1
    15    16    15    1
    16    17    15    1
    17    18    15    1
    18    19    18    1
    19    20    18    1
    20    21    18    1
    21    22    21    1
    22    23    21    1
    23    24    21    1
    24    25    24    1
    25    26    25    1
    26    27    25    1
    27    28    25    1
    28    29    28    1
    29    30    28    1
    30    31    28    1
    31    32    31    1
    32    33    32    1
    33    34    32    1
    34    35    32    1
    35    36    35    1
    36    37    35    1
    37    38    35    1
    38    39    38    1
    39    40    38    1
    40    41    38    1
    41    42    41   am
    42    43    42    2
    43    44    42   am
    44    45    44    1
    45    46    47    2
    46    47    44   am
    47    48    47    1
    48    49    41    1
    49    50    49    1
    50    51    48    1
    51    52    51    1
    52    53    51    1
    53    54    51    1
    54     6     7   ar
    55    12    14    1
    56    48    49    2
@<TRIPOS>SUBSTRUCTURE
     1 RES1        1 GROUP             0 ****  ****    0  
@<TRIPOS>CRYSIN
   26.3330    4.8819   16.7790   90.0000  111.6410   90.0000     9     1
