@<TRIPOS>MOLECULE
TIVXEE
   118   119     1     0     0
SMALL
NO_CHARGES
****
Generated from the CSD

@<TRIPOS>ATOM
     1 C1      11.4212   5.8992   8.3664   C.3       1 RES1   0.0000
     2 H1      11.6798   5.9842   9.2853   H         1 RES1   0.0000
     3 H2      11.4995   4.9809   8.0952   H         1 RES1   0.0000
     4 H3      11.9948   6.4433   7.8218   H         1 RES1   0.0000
     5 C2       9.8369   7.8140   8.5704   C.3       1 RES1   0.0000
     6 H4       9.9828   7.9196   9.5139   H         1 RES1   0.0000
     7 H5      10.4829   8.3340   8.0863   H         1 RES1   0.0000
     8 H6       8.9530   8.1147   8.3485   H         1 RES1   0.0000
     9 C3       9.0343   5.4561   8.9760   C.3       1 RES1   0.0000
    10 H7       9.1738   5.5824   9.9173   H         1 RES1   0.0000
    11 H8       8.1263   5.6811   8.7564   H         1 RES1   0.0000
    12 H9       9.2016   4.5389   8.7497   H         1 RES1   0.0000
    13 C4       9.9822   6.3549   8.1983   C.3       1 RES1   0.0000
    14 O1       9.7612   6.1563   6.7420   O.3       1 RES1   0.0000
    15 C5       8.5740   6.4158   6.1925   C.2       1 RES1   0.0000
    16 O2       7.6564   7.0230   6.7306   O.2       1 RES1   0.0000
    17 N1       8.5030   5.9325   4.9437   N.am      1 RES1   0.0000
    18 H10      9.1651   5.4883   4.6191   H         1 RES1   0.0000
    19 C6       7.3141   6.1529   4.1350   C.3       1 RES1   0.0000
    20 H11      7.2169   7.1195   4.0028   H         1 RES1   0.0000
    21 C7       6.0489   5.6421   4.8370   C.2       1 RES1   0.0000
    22 O3       4.9731   6.2160   4.6507   O.2       1 RES1   0.0000
    23 C8       7.4914   5.5101   2.7724   C.3       1 RES1   0.0000
    24 H12      7.4603   4.5458   2.8710   H         1 RES1   0.0000
    25 H13      8.3657   5.7442   2.4227   H         1 RES1   0.0000
    26 C9       6.4170   5.9463   1.7661   C.3       1 RES1   0.0000
    27 H14      5.5419   5.8131   2.1628   H         1 RES1   0.0000
    28 H15      6.5195   6.8945   1.5868   H         1 RES1   0.0000
    29 C10      6.4841   5.1967   0.4751   C.2       1 RES1   0.0000
    30 O4       6.7903   5.7465  -0.5639   O.2       1 RES1   0.0000
    31 C11      6.1651   3.7400   0.4684   C.ar      1 RES1   0.0000
    32 C12      5.3548   3.1373   1.4389   C.ar      1 RES1   0.0000
    33 H16      5.0362   3.6412   2.1538   H         1 RES1   0.0000
    34 C13      5.0230   1.8057   1.3425   C.ar      1 RES1   0.0000
    35 H17      4.4722   1.4223   1.9857   H         1 RES1   0.0000
    36 C14      5.4974   1.0308   0.3048   C.ar      1 RES1   0.0000
    37 H18      5.2753   0.1297   0.2510   H         1 RES1   0.0000
    38 C15      6.3110   1.6117  -0.6567   C.ar      1 RES1   0.0000
    39 H19      6.6329   1.1009  -1.3627   H         1 RES1   0.0000
    40 C16      6.6437   2.9513  -0.5648   C.ar      1 RES1   0.0000
    41 H20      7.1978   3.3301  -1.2080   H         1 RES1   0.0000
    42 N2       6.1864   4.5779   5.6162   N.am      1 RES1   0.0000
    43 H21      6.9668   4.2290   5.6949   H         1 RES1   0.0000
    44 C17      5.0819   3.9672   6.3493   C.3       1 RES1   0.0000
    45 C18      4.2780   5.0452   7.0979   C.2       1 RES1   0.0000
    46 O5       3.0602   4.9372   7.2328   O.2       1 RES1   0.0000
    47 C19      5.6586   3.0443   7.4005   C.3       1 RES1   0.0000
    48 H22      4.9434   2.6345   7.8935   H         1 RES1   0.0000
    49 H23      6.1870   2.3647   6.9746   H         1 RES1   0.0000
    50 H24      6.2121   3.5494   8.0011   H         1 RES1   0.0000
    51 C20      4.1792   3.2062   5.3879   C.3       1 RES1   0.0000
    52 H25      3.4564   2.8067   5.8764   H         1 RES1   0.0000
    53 H26      3.8272   3.8123   4.7312   H         1 RES1   0.0000
    54 H27      4.6867   2.5197   4.9486   H         1 RES1   0.0000
    55 N3       4.9844   6.0347   7.6667   N.am      1 RES1   0.0000
    56 H28      5.8317   6.0748   7.5237   H         1 RES1   0.0000
    57 C21      4.3607   7.0471   8.5191   C.3       1 RES1   0.0000
    58 C22      3.2048   7.7267   7.7658   C.2       1 RES1   0.0000
    59 O6       2.2396   8.1813   8.3673   O.2       1 RES1   0.0000
    60 C23      3.8532   6.4307   9.8120   C.3       1 RES1   0.0000
    61 H29      3.4503   7.1126  10.3544   H         1 RES1   0.0000
    62 H30      3.2014   5.7546   9.6103   H         1 RES1   0.0000
    63 H31      4.5876   6.0358  10.2894   H         1 RES1   0.0000
    64 C24      5.3933   8.1296   8.8169   C.3       1 RES1   0.0000
    65 H32      5.0008   8.8023   9.3750   H         1 RES1   0.0000
    66 H33      6.1465   7.7393   9.2674   H         1 RES1   0.0000
    67 H34      5.6861   8.5280   7.9921   H         1 RES1   0.0000
    68 N4       3.3464   7.8599   6.4390   N.am      1 RES1   0.0000
    69 H35      4.0372   7.5224   6.0535   H         1 RES1   0.0000
    70 C25      2.3552   8.5647   5.6366   C.3       1 RES1   0.0000
    71 H36      2.2440   9.4624   6.0154   H         1 RES1   0.0000
    72 C26      0.9883   7.8874   5.6254   C.2       1 RES1   0.0000
    73 O7       0.0095   8.5337   5.2691   O.2       1 RES1   0.0000
    74 C27      2.8642   8.7185   4.2067   C.3       1 RES1   0.0000
    75 H37      2.9851   7.8335   3.8302   H         1 RES1   0.0000
    76 H38      2.1786   9.1662   3.6868   H         1 RES1   0.0000
    77 C28      4.1738   9.4922   4.0454   C.3       1 RES1   0.0000
    78 H39      4.8684   9.0170   4.5452   H         1 RES1   0.0000
    79 C29      4.0866  10.9076   4.5945   C.3       1 RES1   0.0000
    80 H40      3.8296  10.8766   5.5201   H         1 RES1   0.0000
    81 H41      4.9420  11.3358   4.5138   H         1 RES1   0.0000
    82 H42      3.4315  11.4047   4.0992   H         1 RES1   0.0000
    83 C30      4.5773   9.5060   2.5774   C.3       1 RES1   0.0000
    84 H43      4.6257   8.6037   2.2524   H         1 RES1   0.0000
    85 H44      3.9262   9.9950   2.0709   H         1 RES1   0.0000
    86 H45      5.4362   9.9262   2.4877   H         1 RES1   0.0000
    87 N5       0.9241   6.6132   6.0058   N.am      1 RES1   0.0000
    88 H46      1.6541   6.2069   6.2037   H         1 RES1   0.0000
    89 C31     -0.3202   5.8797   6.1006   C.3       1 RES1   0.0000
    90 H47     -0.9588   6.3021   5.4865   H         1 RES1   0.0000
    91 C32     -0.9475   5.8900   7.4968   C.2       1 RES1   0.0000
    92 O8      -2.0282   5.3241   7.6708   O.2       1 RES1   0.0000
    93 C33     -0.1508   4.4345   5.6568   C.3       1 RES1   0.0000
    94 H48      0.5316   4.0223   6.2104   H         1 RES1   0.0000
    95 H49     -0.9824   3.9638   5.8227   H         1 RES1   0.0000
    96 C34      0.2277   4.2359   4.2135   C.ar      1 RES1   0.0000
    97 C35      1.0573   3.1729   3.8683   C.ar      1 RES1   0.0000
    98 H50      1.4164   2.6414   4.5407   H         1 RES1   0.0000
    99 C36      1.3623   2.8882   2.5505   C.ar      1 RES1   0.0000
   100 H51      1.9102   2.1661   2.3443   H         1 RES1   0.0000
   101 C37      0.8603   3.6630   1.5576   C.ar      1 RES1   0.0000
   102 H52      1.0613   3.4759   0.6679   H         1 RES1   0.0000
   103 C38      0.0482   4.7272   1.8736   C.ar      1 RES1   0.0000
   104 H53     -0.2999   5.2610   1.1968   H         1 RES1   0.0000
   105 C39     -0.2484   5.0084   3.1825   C.ar      1 RES1   0.0000
   106 H54     -0.7868   5.7408   3.3753   H         1 RES1   0.0000
   107 N6      -0.2943   6.5030   8.4760   N.am      1 RES1   0.0000
   108 H55      0.4358   6.9209   8.2947   H         1 RES1   0.0000
   109 C40     -0.7820   6.4870   9.8568   C.3       1 RES1   0.0000
   110 H56     -1.7605   6.5455   9.8255   H         1 RES1   0.0000
   111 C41     -0.2730   7.7015  10.5987   C.3       1 RES1   0.0000
   112 H57     -0.5980   7.6842  11.5019   H         1 RES1   0.0000
   113 H58      0.6872   7.6946  10.6032   H         1 RES1   0.0000
   114 H59     -0.5854   8.4970  10.1616   H         1 RES1   0.0000
   115 C42     -0.4225   5.1863  10.5270   C.3       1 RES1   0.0000
   116 H60     -0.7476   5.1909  11.4302   H         1 RES1   0.0000
   117 H61     -0.8210   4.4574  10.0473   H         1 RES1   0.0000
   118 H62      0.5326   5.0830  10.5314   H         1 RES1   0.0000
@<TRIPOS>BOND
     1     1     2    1
     2     3     1    1
     3     4     1    1
     4     5     6    1
     5     7     5    1
     6     8     5    1
     7     9    10    1
     8    11     9    1
     9    12     9    1
    10    13     1    1
    11    14    13    1
    12    15    14    1
    13    16    15    2
    14    17    15   am
    15    18    17    1
    16    19    17    1
    17    20    19    1
    18    21    19    1
    19    22    21    2
    20    23    19    1
    21    24    23    1
    22    25    23    1
    23    26    23    1
    24    27    26    1
    25    28    26    1
    26    29    26    1
    27    30    29    2
    28    31    29    1
    29    32    31   ar
    30    33    32    1
    31    34    32   ar
    32    35    34    1
    33    36    34   ar
    34    37    36    1
    35    38    36   ar
    36    39    38    1
    37    40    31   ar
    38    41    40    1
    39    42    21   am
    40    43    42    1
    41    44    42    1
    42    45    44    1
    43    46    45    2
    44    47    44    1
    45    48    47    1
    46    49    47    1
    47    50    47    1
    48    51    44    1
    49    52    51    1
    50    53    51    1
    51    54    51    1
    52    55    45   am
    53    56    55    1
    54    57    55    1
    55    58    57    1
    56    59    58    2
    57    60    57    1
    58    61    60    1
    59    62    60    1
    60    63    60    1
    61    64    57    1
    62    65    64    1
    63    66    64    1
    64    67    64    1
    65    68    58   am
    66    69    68    1
    67    70    68    1
    68    71    70    1
    69    72    70    1
    70    73    72    2
    71    74    70    1
    72    75    74    1
    73    76    74    1
    74    77    74    1
    75    78    77    1
    76    79    77    1
    77    80    79    1
    78    81    79    1
    79    82    79    1
    80    83    77    1
    81    84    83    1
    82    85    83    1
    83    86    83    1
    84    87    72   am
    85    88    87    1
    86    89    87    1
    87    90    89    1
    88    91    89    1
    89    92    91    2
    90    93    89    1
    91    94    93    1
    92    95    93    1
    93    96    93    1
    94    97    96   ar
    95    98    97    1
    96    99    97   ar
    97   100    99    1
    98   101    99   ar
    99   102   101    1
   100   103   101   ar
   101   104   103    1
   102   105    96   ar
   103   106   105    1
   104   107    91   am
   105   108   107    1
   106   109   107    1
   107   110   109    1
   108   111   109    1
   109   112   111    1
   110   113   111    1
   111   114   111    1
   112   115   109    1
   113   116   115    1
   114   117   115    1
   115   118   115    1
   116     5    13    1
   117     9    13    1
   118    38    40   ar
   119   103   105   ar
@<TRIPOS>SUBSTRUCTURE
     1 RES1        1 GROUP             0 ****  ****    0  
@<TRIPOS>CRYSIN
   16.8600   11.4793   22.8370   90.0000  101.0700   90.0000     5     1
