@<TRIPOS>MOLECULE
01
    39    39     1     0     0
SMALL
NO_CHARGES
****
Generated from the CSD

@<TRIPOS>ATOM
     1 C1      11.4212   5.8992   8.3664   C.3       1 RES1   0.0000
     2 H1      11.6798   5.9842   9.2853   H         1 RES1   0.0000
     3 H2      11.4995   4.9809   8.0952   H         1 RES1   0.0000
     4 H3      11.9948   6.4433   7.8218   H         1 RES1   0.0000
     5 C2       9.8369   7.8140   8.5704   C.3       1 RES1   0.0000
     6 H4       9.9828   7.9196   9.5139   H         1 RES1   0.0000
     7 H5      10.4829   8.3340   8.0863   H         1 RES1   0.0000
     8 H6       8.9530   8.1147   8.3485   H         1 RES1   0.0000
     9 C3       9.0343   5.4561   8.9760   C.3       1 RES1   0.0000
    10 H7       9.1738   5.5824   9.9173   H         1 RES1   0.0000
    11 H8       8.1263   5.6811   8.7564   H         1 RES1   0.0000
    12 H9       9.2016   4.5389   8.7497   H         1 RES1   0.0000
    13 C4       9.9822   6.3549   8.1983   C.3       1 RES1   0.0000
    14 O1       9.7612   6.1563   6.7420   O.3       1 RES1   0.0000
    15 C5       8.5740   6.4158   6.1925   C.2       1 RES1   0.0000
    16 O2       7.6564   7.0230   6.7306   O.2       1 RES1   0.0000
    17 N1       8.5030   5.9325   4.9437   N.am      1 RES1   0.0000
    18 H10      9.1651   5.4883   4.6191   H         1 RES1   0.0000
    19 C6       7.3141   6.1529   4.1350   C.3       1 RES1   0.0000
    20 H11      7.2169   7.1195   4.0028   H         1 RES1   0.0000
    21 C8       7.4914   5.5101   2.7724   C.3       1 RES1   0.0000
    22 H12      7.4603   4.5458   2.8710   H         1 RES1   0.0000
    23 H13      8.3657   5.7442   2.4227   H         1 RES1   0.0000
    24 C9       6.4170   5.9463   1.7661   C.3       1 RES1   0.0000
    25 H14      5.5419   5.8131   2.1628   H         1 RES1   0.0000
    26 H15      6.5195   6.8945   1.5868   H         1 RES1   0.0000
    27 C10      6.4841   5.1967   0.4751   C.2       1 RES1   0.0000
    28 O4       6.7903   5.7465  -0.5639   O.2       1 RES1   0.0000
    29 C11      6.1651   3.7400   0.4684   C.ar      1 RES1   0.0000
    30 C12      5.3548   3.1373   1.4389   C.ar      1 RES1   0.0000
    31 H16      5.0362   3.6412   2.1538   H         1 RES1   0.0000
    32 C13      5.0230   1.8057   1.3425   C.ar      1 RES1   0.0000
    33 H17      4.4722   1.4223   1.9857   H         1 RES1   0.0000
    34 C14      5.4974   1.0308   0.3048   C.ar      1 RES1   0.0000
    35 H18      5.2753   0.1297   0.2510   H         1 RES1   0.0000
    36 C15      6.3110   1.6117  -0.6567   C.ar      1 RES1   0.0000
    37 H19      6.6329   1.1009  -1.3627   H         1 RES1   0.0000
    38 C16      6.6437   2.9513  -0.5648   C.ar      1 RES1   0.0000
    39 H20      7.1978   3.3301  -1.2080   H         1 RES1   0.0000
@<TRIPOS>BOND
     1     1     2    1
     2     3     1    1
     3     4     1    1
     4     5     6    1
     5     7     5    1
     6     8     5    1
     7     9    10    1
     8    11     9    1
     9    12     9    1
    10    13     1    1
    11    14    13    1
    12    15    14    1
    13    16    15    2
    14    17    15   am
    15    18    17    1
    16    19    17    1
    17    20    19    1
    18    21    19    1
    19    22    21    1
    20    23    21    1
    21    24    21    1
    22    25    24    1
    23    26    24    1
    24    27    24    1
    25    28    27    2
    26    29    27    1
    27    30    29   ar
    28    31    30    1
    29    32    30   ar
    30    33    32    1
    31    34    32   ar
    32    35    34    1
    33    36    34   ar
    34    37    36    1
    35    38    29   ar
    36    39    38    1
    37     5    13    1
    38     9    13    1
    39    36    38   ar
@<TRIPOS>SUBSTRUCTURE
     1 RES1        1 GROUP             0 ****  ****    0  
