@<TRIPOS>MOLECULE
02
    30    30     1     0     0
SMALL
NO_CHARGES
****
Generated from the CSD

@<TRIPOS>ATOM
     1 C31     -0.3202   5.8797   6.1006   C.3       1 RES2   0.0000
     2 H47     -0.9588   6.3021   5.4865   H         1 RES2   0.0000
     3 C32     -0.9475   5.8900   7.4968   C.2       1 RES2   0.0000
     4 O8      -2.0282   5.3241   7.6708   O.2       1 RES2   0.0000
     5 C33     -0.1508   4.4345   5.6568   C.3       1 RES2   0.0000
     6 H48      0.5316   4.0223   6.2104   H         1 RES2   0.0000
     7 H49     -0.9824   3.9638   5.8227   H         1 RES2   0.0000
     8 C34      0.2277   4.2359   4.2135   C.ar      1 RES2   0.0000
     9 C35      1.0573   3.1729   3.8683   C.ar      1 RES2   0.0000
    10 H50      1.4164   2.6414   4.5407   H         1 RES2   0.0000
    11 C36      1.3623   2.8882   2.5505   C.ar      1 RES2   0.0000
    12 H51      1.9102   2.1661   2.3443   H         1 RES2   0.0000
    13 C37      0.8603   3.6630   1.5576   C.ar      1 RES2   0.0000
    14 H52      1.0613   3.4759   0.6679   H         1 RES2   0.0000
    15 C38      0.0482   4.7272   1.8736   C.ar      1 RES2   0.0000
    16 H53     -0.2999   5.2610   1.1968   H         1 RES2   0.0000
    17 C39     -0.2484   5.0084   3.1825   C.ar      1 RES2   0.0000
    18 H54     -0.7868   5.7408   3.3753   H         1 RES2   0.0000
    19 N6      -0.2943   6.5030   8.4760   N.am      1 RES2   0.0000
    20 H55      0.4358   6.9209   8.2947   H         1 RES2   0.0000
    21 C40     -0.7820   6.4870   9.8568   C.3       1 RES2   0.0000
    22 H56     -1.7605   6.5455   9.8255   H         1 RES2   0.0000
    23 C41     -0.2730   7.7015  10.5987   C.3       1 RES2   0.0000
    24 H57     -0.5980   7.6842  11.5019   H         1 RES2   0.0000
    25 H58      0.6872   7.6946  10.6032   H         1 RES2   0.0000
    26 H59     -0.5854   8.4970  10.1616   H         1 RES2   0.0000
    27 C42     -0.4225   5.1863  10.5270   C.3       1 RES2   0.0000
    28 H60     -0.7476   5.1909  11.4302   H         1 RES2   0.0000
    29 H61     -0.8210   4.4574  10.0473   H         1 RES2   0.0000
    30 H62      0.5326   5.0830  10.5314   H         1 RES2   0.0000
@<TRIPOS>BOND
     1     2     1    1
     2     3     1    1
     3     4     3    2
     4     5     1    1
     5     6     5    1
     6     7     5    1
     7     8     5    1
     8     9     8   ar
     9    10     9    1
    10    11     9   ar
    11    12    11    1
    12    13    11   ar
    13    14    13    1
    14    15    13   ar
    15    16    15    1
    16    17     8   ar
    17    18    17    1
    18    19     3   am
    19    20    19    1
    20    21    19    1
    21    22    21    1
    22    23    21    1
    23    24    23    1
    24    25    23    1
    25    26    23    1
    26    27    21    1
    27    28    27    1
    28    29    27    1
    29    30    27    1
    30    15    17   ar
@<TRIPOS>SUBSTRUCTURE
     1 RES2        1 GROUP             0 ****  ****    0  
