@<TRIPOS>MOLECULE
01
    27    29     1     0     0
SMALL
NO_CHARGES
****
Generated from the CSD

@<TRIPOS>ATOM
     1 C1      -0.5974   1.8683   5.0894   C.2       1 RES1   0.0000
     2 O1      -0.1972   2.3038   6.1512   O.2       1 RES1   0.0000
     3 N1      -0.3646   0.5912   4.6709   N.am      1 RES1   0.0000
     4 C2      -0.8692   0.0175   3.4840   C.2       1 RES1   0.0000
     5 O2      -0.6751  -1.1754   3.2944   O.2       1 RES1   0.0000
     6 C3      -1.5495   0.9091   2.5941   C.2       1 RES1   0.0000
     7 C4      -1.8114   2.2008   2.9761   C.2       1 RES1   0.0000
     8 C5      -2.5747   3.1364   2.2100   C.2       1 RES1   0.0000
     9 H1      -2.9106   2.8732   1.3839   H         1 RES1   0.0000
    10 C6      -2.8228   4.3858   2.6468   C.2       1 RES1   0.0000
    11 H2      -3.3221   4.9713   2.1252   H         1 RES1   0.0000
    12 C7      -2.3248   4.8043   3.8973   C.2       1 RES1   0.0000
    13 H3      -2.4872   5.6681   4.1994   H         1 RES1   0.0000
    14 C8      -1.6242   3.9626   4.6401   C.2       1 RES1   0.0000
    15 H4      -1.3012   4.2468   5.4643   H         1 RES1   0.0000
    16 N2      -1.3581   2.6639   4.2176   N.am      1 RES1   0.0000
    17 C9      -1.9097   0.4050   1.2406   C.ar      1 RES1   0.0000
    18 C10     -2.6784  -0.7371   1.0794   C.ar      1 RES1   0.0000
    19 H5      -2.9897  -1.1917   1.8294   H         1 RES1   0.0000
    20 C11     -2.9863  -1.2086  -0.1824   C.ar      1 RES1   0.0000
    21 H6      -3.5023  -1.9743  -0.2907   H         1 RES1   0.0000
    22 C12     -2.5198  -0.5321  -1.2588   C.ar      1 RES1   0.0000
    23 F1      -2.8423  -0.9790  -2.5099   F         1 RES1   0.0000
    24 C13     -1.7444   0.5731  -1.1570   C.ar      1 RES1   0.0000
    25 H7      -1.4338   1.0088  -1.9178   H         1 RES1   0.0000
    26 C14     -1.4253   1.0402   0.1095   C.ar      1 RES1   0.0000
    27 H8      -0.8801   1.7882   0.2006   H         1 RES1   0.0000
@<TRIPOS>BOND
     1     1     2    2
     2     3     1   am
     3     4     3   am
     4     5     4    2
     5     6     4    1
     6     7     6    2
     7     8     7    1
     8     9     8    1
     9    10     8    2
    10    11    10    1
    11    12    10    1
    12    13    12    1
    13    14    12    2
    14    15    14    1
    15    16     1   am
    16    17     6    1
    17    18    17   ar
    18    19    18    1
    19    20    18   ar
    20    21    20    1
    21    22    20   ar
    22    23    22    1
    23    24    22   ar
    24    25    24    1
    25    26    17   ar
    26    27    26    1
    27     7    16    1
    28    14    16    1
    29    24    26   ar
@<TRIPOS>SUBSTRUCTURE
     1 RES1        1 GROUP             0 ****  ****    0  
