@<TRIPOS>MOLECULE
02
    14    14     1     0     0
SMALL
NO_CHARGES
****
Generated from the CSD

@<TRIPOS>ATOM
     1 C23      2.0655  -6.9569  11.3676   C.ar      1 RES2   0.0000
     2 C24      2.3483  -6.8099  12.7213   C.ar      1 RES2   0.0000
     3 H25      2.0795  -6.0368  13.1643   H         1 RES2   0.0000
     4 C25      3.0262  -7.8002  13.4216   C.ar      1 RES2   0.0000
     5 C26      3.4257  -8.9605  12.7907   C.ar      1 RES2   0.0000
     6 H26      3.8695  -9.6259  13.2630   H         1 RES2   0.0000
     7 C27      3.1569  -9.1149  11.4569   C.ar      1 RES2   0.0000
     8 H27      3.4271  -9.8921  11.0221   H         1 RES2   0.0000
     9 C28      2.4934  -8.1385  10.7489   C.ar      1 RES2   0.0000
    10 H28      2.3256  -8.2658   9.8422   H         1 RES2   0.0000
    11 C29      3.3217  -7.5623  14.8472   C.3       1 RES2   0.0000
    12 F2       4.0420  -8.4744  15.4220   F         1 RES2   0.0000
    13 F3       3.9415  -6.4127  15.0684   F         1 RES2   0.0000
    14 F4       2.2383  -7.4471  15.6005   F         1 RES2   0.0000
@<TRIPOS>BOND
     1     2     1   ar
     2     3     2    1
     3     4     2   ar
     4     5     4   ar
     5     6     5    1
     6     7     5   ar
     7     8     7    1
     8     9     1   ar
     9    10     9    1
    10    11     4    1
    11    12    11    1
    12    13    11    1
    13    14    11    1
    14     7     9   ar
@<TRIPOS>SUBSTRUCTURE
     1 RES2        1 GROUP             0 ****  ****    0  
