@<TRIPOS>MOLECULE
TOKCIG
    67    71     1     0     0
SMALL
NO_CHARGES
****
Generated from the CSD

@<TRIPOS>ATOM
     1 C1      -0.5974   1.8683   5.0894   C.2       1 RES1   0.0000
     2 O1      -0.1972   2.3038   6.1512   O.2       1 RES1   0.0000
     3 N1      -0.3646   0.5912   4.6709   N.am      1 RES1   0.0000
     4 C2      -0.8692   0.0175   3.4840   C.2       1 RES1   0.0000
     5 O2      -0.6751  -1.1754   3.2944   O.2       1 RES1   0.0000
     6 C3      -1.5495   0.9091   2.5941   C.2       1 RES1   0.0000
     7 C4      -1.8114   2.2008   2.9761   C.2       1 RES1   0.0000
     8 C5      -2.5747   3.1364   2.2100   C.2       1 RES1   0.0000
     9 H1      -2.9106   2.8732   1.3839   H         1 RES1   0.0000
    10 C6      -2.8228   4.3858   2.6468   C.2       1 RES1   0.0000
    11 H2      -3.3221   4.9713   2.1252   H         1 RES1   0.0000
    12 C7      -2.3248   4.8043   3.8973   C.2       1 RES1   0.0000
    13 H3      -2.4872   5.6681   4.1994   H         1 RES1   0.0000
    14 C8      -1.6242   3.9626   4.6401   C.2       1 RES1   0.0000
    15 H4      -1.3012   4.2468   5.4643   H         1 RES1   0.0000
    16 N2      -1.3581   2.6639   4.2176   N.am      1 RES1   0.0000
    17 C9      -1.9097   0.4050   1.2406   C.ar      1 RES1   0.0000
    18 C10     -2.6784  -0.7371   1.0794   C.ar      1 RES1   0.0000
    19 H5      -2.9897  -1.1917   1.8294   H         1 RES1   0.0000
    20 C11     -2.9863  -1.2086  -0.1824   C.ar      1 RES1   0.0000
    21 H6      -3.5023  -1.9743  -0.2907   H         1 RES1   0.0000
    22 C12     -2.5198  -0.5321  -1.2588   C.ar      1 RES1   0.0000
    23 F1      -2.8423  -0.9790  -2.5099   F         1 RES1   0.0000
    24 C13     -1.7444   0.5731  -1.1570   C.ar      1 RES1   0.0000
    25 H7      -1.4338   1.0088  -1.9178   H         1 RES1   0.0000
    26 C14     -1.4253   1.0402   0.1095   C.ar      1 RES1   0.0000
    27 H8      -0.8801   1.7882   0.2006   H         1 RES1   0.0000
    28 C15      0.4631  -0.2516   5.5486   C.3       1 RES1   0.0000
    29 H9       1.1273   0.3063   5.9829   H         1 RES1   0.0000
    30 H10      0.9351  -0.9014   5.0036   H         1 RES1   0.0000
    31 C16     -0.3229  -0.9820   6.6053   C.3       1 RES1   0.0000
    32 H11     -1.0088  -1.5212   6.1818   H         1 RES1   0.0000
    33 H12     -0.7621  -0.3375   7.1815   H         1 RES1   0.0000
    34 C17      0.5758  -1.8761   7.4413   C.3       1 RES1   0.0000
    35 H13      1.0144  -2.5148   6.8585   H         1 RES1   0.0000
    36 H14      1.2638  -1.3314   7.8547   H         1 RES1   0.0000
    37 C18     -0.1719  -2.6279   8.5214   C.3       1 RES1   0.0000
    38 H15     -0.6070  -1.9875   9.1061   H         1 RES1   0.0000
    39 H16     -0.8636  -3.1667   8.1064   H         1 RES1   0.0000
    40 N3       0.6876  -3.4971   9.3266   N.3       1 RES1   0.0000
    41 C19      1.1208  -4.6653   8.5632   C.3       1 RES1   0.0000
    42 H17      1.6077  -4.3709   7.7782   H         1 RES1   0.0000
    43 H18      0.3410  -5.1576   8.2628   H         1 RES1   0.0000
    44 C20      1.9977  -5.5742   9.3760   C.3       1 RES1   0.0000
    45 H19      2.2109  -6.3631   8.8527   H         1 RES1   0.0000
    46 H20      2.8302  -5.1176   9.5770   H         1 RES1   0.0000
    47 N4       1.3599  -5.9873  10.6301   N.3       1 RES1   0.0000
    48 C21      0.8761  -4.8276  11.3724   C.3       1 RES1   0.0000
    49 H21      1.6314  -4.2988  11.6733   H         1 RES1   0.0000
    50 H22      0.3874  -5.1253  12.1545   H         1 RES1   0.0000
    51 C22     -0.0219  -3.9768  10.5119   C.3       1 RES1   0.0000
    52 H23     -0.7936  -4.4974  10.2384   H         1 RES1   0.0000
    53 H24     -0.3381  -3.2187  11.0272   H         1 RES1   0.0000
    54 C23      2.0655  -6.9569  11.3676   C.ar      1 RES1   0.0000
    55 C24      2.3483  -6.8099  12.7213   C.ar      1 RES1   0.0000
    56 H25      2.0795  -6.0368  13.1643   H         1 RES1   0.0000
    57 C25      3.0262  -7.8002  13.4216   C.ar      1 RES1   0.0000
    58 C26      3.4257  -8.9605  12.7907   C.ar      1 RES1   0.0000
    59 H26      3.8695  -9.6259  13.2630   H         1 RES1   0.0000
    60 C27      3.1569  -9.1149  11.4569   C.ar      1 RES1   0.0000
    61 H27      3.4271  -9.8921  11.0221   H         1 RES1   0.0000
    62 C28      2.4934  -8.1385  10.7489   C.ar      1 RES1   0.0000
    63 H28      2.3256  -8.2658   9.8422   H         1 RES1   0.0000
    64 C29      3.3217  -7.5623  14.8472   C.3       1 RES1   0.0000
    65 F2       4.0420  -8.4744  15.4220   F         1 RES1   0.0000
    66 F3       3.9415  -6.4127  15.0684   F         1 RES1   0.0000
    67 F4       2.2383  -7.4471  15.6005   F         1 RES1   0.0000
@<TRIPOS>BOND
     1     1     2    2
     2     3     1   am
     3     4     3   am
     4     5     4    2
     5     6     4    1
     6     7     6    2
     7     8     7    1
     8     9     8    1
     9    10     8    2
    10    11    10    1
    11    12    10    1
    12    13    12    1
    13    14    12    2
    14    15    14    1
    15    16     1   am
    16    17     6    1
    17    18    17   ar
    18    19    18    1
    19    20    18   ar
    20    21    20    1
    21    22    20   ar
    22    23    22    1
    23    24    22   ar
    24    25    24    1
    25    26    17   ar
    26    27    26    1
    27    28     3    1
    28    29    28    1
    29    30    28    1
    30    31    28    1
    31    32    31    1
    32    33    31    1
    33    34    31    1
    34    35    34    1
    35    36    34    1
    36    37    34    1
    37    38    37    1
    38    39    37    1
    39    40    37    1
    40    41    40    1
    41    42    41    1
    42    43    41    1
    43    44    41    1
    44    45    44    1
    45    46    44    1
    46    47    44    1
    47    48    47    1
    48    49    48    1
    49    50    48    1
    50    51    40    1
    51    52    51    1
    52    53    51    1
    53    54    47    1
    54    55    54   ar
    55    56    55    1
    56    57    55   ar
    57    58    57   ar
    58    59    58    1
    59    60    58   ar
    60    61    60    1
    61    62    54   ar
    62    63    62    1
    63    64    57    1
    64    65    64    1
    65    66    64    1
    66    67    64    1
    67     7    16    1
    68    14    16    1
    69    24    26   ar
    70    48    51    1
    71    60    62   ar
@<TRIPOS>SUBSTRUCTURE
     1 RES1        1 GROUP             0 ****  ****    0  
@<TRIPOS>CRYSIN
    8.6490    9.2870   17.6530   95.6600  102.5200  104.8500     2     1
