@<TRIPOS>MOLECULE
01
    11    11     1     0     0
SMALL
NO_CHARGES
****
Generated from the CSD

@<TRIPOS>ATOM
     1 C1       6.1142  -1.3622  -3.1872   C.ar      1 RES1   0.0000
     2 C2       5.9219  -1.6408  -4.5344   C.ar      1 RES1   0.0000
     3 C3       5.9610  -0.6324  -5.4879   C.ar      1 RES1   0.0000
     4 H1       5.8485  -0.8334  -6.4097   H         1 RES1   0.0000
     5 C4       6.1665   0.6697  -5.0702   C.ar      1 RES1   0.0000
     6 H2       6.2108   1.3670  -5.7139   H         1 RES1   0.0000
     7 C5       6.3100   0.9726  -3.7179   C.ar      1 RES1   0.0000
     8 H3       6.4270   1.8769  -3.4520   H         1 RES1   0.0000
     9 C6       6.2857  -0.0282  -2.7488   C.ar      1 RES1   0.0000
    10 Cl1      6.2248  -2.6673  -2.0569   Cl        1 RES1   0.0000
    11 Cl2      5.6165  -3.2700  -5.0567   Cl        1 RES1   0.0000
@<TRIPOS>BOND
     1     1     2   ar
     2     2     3   ar
     3     3     4    1
     4     5     3   ar
     5     6     5    1
     6     7     5   ar
     7     8     7    1
     8     9     1   ar
     9    10     1    1
    10    11     2    1
    11     7     9   ar
@<TRIPOS>SUBSTRUCTURE
     1 RES1        1 GROUP             0 ****  ****    0  
