@<TRIPOS>MOLECULE
UVUNEH
    57    60     1     0     0
SMALL
NO_CHARGES
****
Generated from the CSD

@<TRIPOS>ATOM
     1 C1       6.1142  -1.3622  -3.1872   C.ar      1 RES1   0.0000
     2 C2       5.9219  -1.6408  -4.5344   C.ar      1 RES1   0.0000
     3 C3       5.9610  -0.6324  -5.4879   C.ar      1 RES1   0.0000
     4 H1       5.8485  -0.8334  -6.4097   H         1 RES1   0.0000
     5 C4       6.1665   0.6697  -5.0702   C.ar      1 RES1   0.0000
     6 H2       6.2108   1.3670  -5.7139   H         1 RES1   0.0000
     7 C5       6.3100   0.9726  -3.7179   C.ar      1 RES1   0.0000
     8 H3       6.4270   1.8769  -3.4520   H         1 RES1   0.0000
     9 C6       6.2857  -0.0282  -2.7488   C.ar      1 RES1   0.0000
    10 C7       7.0904   1.5053  -1.0222   C.3       1 RES1   0.0000
    11 H4       6.4302   2.2362  -1.1198   H         1 RES1   0.0000
    12 H5       7.8530   1.6920  -1.6254   H         1 RES1   0.0000
    13 C8       7.5749   1.4338   0.4178   C.3       1 RES1   0.0000
    14 H6       8.2497   0.7142   0.5040   H         1 RES1   0.0000
    15 H7       8.0062   2.2900   0.6643   H         1 RES1   0.0000
    16 C9       5.8119  -0.0868   0.9377   C.3       1 RES1   0.0000
    17 H8       5.0470  -0.2654   1.5399   H         1 RES1   0.0000
    18 H9       6.4557  -0.8338   1.0284   H         1 RES1   0.0000
    19 C10      5.3225  -0.0107  -0.4966   C.3       1 RES1   0.0000
    20 H10      4.8774  -0.8586  -0.7472   H         1 RES1   0.0000
    21 H11      4.6664   0.7250  -0.5908   H         1 RES1   0.0000
    22 C11      6.9278   1.0921   2.7248   C.3       1 RES1   0.0000
    23 H12      7.7156   0.4942   2.7682   H         1 RES1   0.0000
    24 H13      6.2134   0.6911   3.2813   H         1 RES1   0.0000
    25 C12      7.3035   2.4528   3.3045   C.3       1 RES1   0.0000
    26 H14      7.6227   2.3374   4.2348   H         1 RES1   0.0000
    27 H15      8.0422   2.8440   2.7738   H         1 RES1   0.0000
    28 C13      6.1144   3.3980   3.2910   C.3       1 RES1   0.0000
    29 H16      5.7792   3.4740   2.3627   H         1 RES1   0.0000
    30 H17      5.3905   3.0065   3.8409   H         1 RES1   0.0000
    31 C14      6.4224   4.7656   3.8043   C.3       1 RES1   0.0000
    32 C15      6.9021   6.0152   5.7513   C.ar      1 RES1   0.0000
    33 C16      8.0680   6.7511   5.6205   C.ar      1 RES1   0.0000
    34 H18      8.7994   6.4185   5.1131   H         1 RES1   0.0000
    35 C17      8.1420   7.9901   6.2516   C.ar      1 RES1   0.0000
    36 H19      8.9290   8.5144   6.1560   H         1 RES1   0.0000
    37 C18      7.0920   8.4764   7.0170   C.ar      1 RES1   0.0000
    38 C19      7.1260   9.7990   7.7406   C.3       1 RES1   0.0000
    39 H20      7.7497  10.4140   7.2794   H         1 RES1   0.0000
    40 H21      7.4534   9.6637   8.6650   H         1 RES1   0.0000
    41 C20      5.7285  10.4162   7.7762   C.3       1 RES1   0.0000
    42 H22      5.7392  11.2100   8.3681   H         1 RES1   0.0000
    43 H23      5.4840  10.7196   6.8661   H         1 RES1   0.0000
    44 C21      4.6906   9.4474   8.2691   C.2       1 RES1   0.0000
    45 C22      5.9443   7.6894   7.1473   C.ar      1 RES1   0.0000
    46 C23      5.8386   6.4505   6.5145   C.ar      1 RES1   0.0000
    47 H24      5.0555   5.9211   6.6069   H         1 RES1   0.0000
    48 Cl1      6.2248  -2.6673  -2.0569   Cl        1 RES1   0.0000
    49 Cl2      5.6165  -3.2700  -5.0567   Cl        1 RES1   0.0000
    50 F1       5.3523   5.5978   3.6331   F         1 RES1   0.0000
    51 F2       7.4201   5.3502   3.0750   F         1 RES1   0.0000
    52 N1       6.4771   0.2306  -1.3775   N.3       1 RES1   0.0000
    53 N2       6.4602   1.1689   1.3278   N.3       1 RES1   0.0000
    54 N3       4.8784   8.1491   7.9487   N.am      1 RES1   0.0000
    55 O1       6.7847   4.7527   5.1348   O.3       1 RES1   0.0000
    56 O2       3.6879   9.7952   8.8988   O.2       1 RES1   0.0000
    57 H25      4.1660   7.5646   8.1526   H         1 RES1   0.0000
@<TRIPOS>BOND
     1     1     2   ar
     2     2     3   ar
     3     3     4    1
     4     5     3   ar
     5     6     5    1
     6     7     5   ar
     7     8     7    1
     8     9     1   ar
     9    10    11    1
    10    12    10    1
    11    13    10    1
    12    14    13    1
    13    15    13    1
    14    16    17    1
    15    18    16    1
    16    19    16    1
    17    20    19    1
    18    21    19    1
    19    22    23    1
    20    24    22    1
    21    25    22    1
    22    26    25    1
    23    27    25    1
    24    28    25    1
    25    29    28    1
    26    30    28    1
    27    31    28    1
    28    32    33   ar
    29    33    34    1
    30    35    33   ar
    31    36    35    1
    32    37    35   ar
    33    38    37    1
    34    39    38    1
    35    40    38    1
    36    41    38    1
    37    42    41    1
    38    43    41    1
    39    44    41    1
    40    45    37   ar
    41    46    32   ar
    42    47    46    1
    43    48     1    1
    44    49     2    1
    45    50    31    1
    46    51    31    1
    47    52     9    1
    48    53    13    1
    49    54    44   am
    50    55    31    1
    51    56    44    2
    52    57    54    1
    53     7     9   ar
    54    10    52    1
    55    16    53    1
    56    19    52    1
    57    22    53    1
    58    32    55    1
    59    45    46   ar
    60    45    54    1
@<TRIPOS>SUBSTRUCTURE
     1 RES1        1 GROUP             0 ****  ****    0  
@<TRIPOS>CRYSIN
    8.6081    7.6103   17.2300   90.0000   96.1490   90.0000     4     1
