@<TRIPOS>MOLECULE
02
    19    20     1     0     0
SMALL
NO_CHARGES
****
Generated from the CSD

@<TRIPOS>ATOM
     1 C15      6.9021   6.0152   5.7513   C.ar      1 RES2   0.0000
     2 C16      8.0680   6.7511   5.6205   C.ar      1 RES2   0.0000
     3 H18      8.7994   6.4185   5.1131   H         1 RES2   0.0000
     4 C17      8.1420   7.9901   6.2516   C.ar      1 RES2   0.0000
     5 H19      8.9290   8.5144   6.1560   H         1 RES2   0.0000
     6 C18      7.0920   8.4764   7.0170   C.ar      1 RES2   0.0000
     7 C19      7.1260   9.7990   7.7406   C.3       1 RES2   0.0000
     8 H20      7.7497  10.4140   7.2794   H         1 RES2   0.0000
     9 H21      7.4534   9.6637   8.6650   H         1 RES2   0.0000
    10 C20      5.7285  10.4162   7.7762   C.3       1 RES2   0.0000
    11 H22      5.7392  11.2100   8.3681   H         1 RES2   0.0000
    12 H23      5.4840  10.7196   6.8661   H         1 RES2   0.0000
    13 C21      4.6906   9.4474   8.2691   C.2       1 RES2   0.0000
    14 C22      5.9443   7.6894   7.1473   C.ar      1 RES2   0.0000
    15 C23      5.8386   6.4505   6.5145   C.ar      1 RES2   0.0000
    16 H24      5.0555   5.9211   6.6069   H         1 RES2   0.0000
    17 N3       4.8784   8.1491   7.9487   N.am      1 RES2   0.0000
    18 O2       3.6879   9.7952   8.8988   O.2       1 RES2   0.0000
    19 H25      4.1660   7.5646   8.1526   H         1 RES2   0.0000
@<TRIPOS>BOND
     1     1     2   ar
     2     2     3    1
     3     4     2   ar
     4     5     4    1
     5     6     4   ar
     6     7     6    1
     7     8     7    1
     8     9     7    1
     9    10     7    1
    10    11    10    1
    11    12    10    1
    12    13    10    1
    13    14     6   ar
    14    15     1   ar
    15    16    15    1
    16    17    13   am
    17    18    13    2
    18    19    17    1
    19    14    15   ar
    20    14    17    1
@<TRIPOS>SUBSTRUCTURE
     1 RES2        1 GROUP             0 ****  ****    0  
