@<TRIPOS>MOLECULE
02
    14    14     1     0     0
SMALL
NO_CHARGES
****
Generated from the CSD

@<TRIPOS>ATOM
     1 C5       8.7780   7.1958   7.7047   C.ar      1 RES2   0.0000
     2 C11      8.4569   7.3596   5.2108   C.ar      1 RES2   0.0000
     3 C19      9.5456   6.4453   6.9447   C.ar      1 RES2   0.0000
     4 C20      9.4116   6.3857   5.4170   C.ar      1 RES2   0.0000
     5 C22      7.6373   8.1191   5.9137   C.ar      1 RES2   0.0000
     6 C23      8.8812   7.2047   9.1564   C.3       1 RES2   0.0000
     7 C24      7.9265   8.0298   7.1696   C.ar      1 RES2   0.0000
     8 H12      8.3643   7.5383   4.2802   H         1 RES2   0.0000
     9 H21     10.2148   5.9151   7.3626   H         1 RES2   0.0000
    10 H22      9.8648   5.8317   4.7928   H         1 RES2   0.0000
    11 H25      6.9362   8.6463   5.5510   H         1 RES2   0.0000
    12 H26      9.3662   6.4393   9.4451   H         1 RES2   0.0000
    13 H27      8.0056   7.1809   9.5341   H         1 RES2   0.0000
    14 H28      7.4849   8.6314   7.7553   H         1 RES2   0.0000
@<TRIPOS>BOND
     1     1     3   ar
     2     2     4   ar
     3     3     4   ar
     4     4    10    1
     5     5     2   ar
     6     6     1    1
     7     7     1   ar
     8     8     2    1
     9     9     3    1
    10    11     5    1
    11    12     6    1
    12    13     6    1
    13    14     7    1
    14     5     7   ar
@<TRIPOS>SUBSTRUCTURE
     1 RES2        1 GROUP             0 ****  ****    0  
