@<TRIPOS>MOLECULE
01
    22    22     1     0     0
SMALL
NO_CHARGES
****
Generated from the CSD

@<TRIPOS>ATOM
     1 O2       2.8997  11.4490   5.8322   O.2       1 RES1   0.0000
     2 O6       5.3249  10.5346   7.7834   O.2       1 RES1   0.0000
     3 O7       2.7376  11.3209   8.0252   O.3       1 RES1   0.0000
     4 C2       3.9151  11.9404  10.5979   C.ar      1 RES1   0.0000
     5 C3       2.4329  10.9218   6.7788   C.2       1 RES1   0.0000
     6 C4       5.0905  11.6932   7.7741   C.2       1 RES1   0.0000
     7 C6       3.6171  14.1712   9.8593   C.ar      1 RES1   0.0000
     8 C9       1.5140   9.7632   6.7966   C.3       1 RES1   0.0000
     9 C12      3.6113  14.5763  11.1621   C.ar      1 RES1   0.0000
    10 C17      3.9151  12.3693  11.8931   C.ar      1 RES1   0.0000
    11 C18      3.7704  13.6679  12.1836   C.ar      1 RES1   0.0000
    12 C26      3.7579  12.8250   9.5707   C.ar      1 RES1   0.0000
    13 C27      3.7502  12.3336   8.1368   C.3       1 RES1   0.0000
    14 H2       4.0231  11.0141  10.4085   H         1 RES1   0.0000
    15 H3       3.5264  14.8056   9.1621   H         1 RES1   0.0000
    16 H8       0.7010  10.0104   7.2202   H         1 RES1   0.0000
    17 H9       1.3356   9.4862   5.9044   H         1 RES1   0.0000
    18 H10      1.9161   9.0484   7.2745   H         1 RES1   0.0000
    19 H13      3.4927  15.4966  11.3701   H         1 RES1   0.0000
    20 H19      4.0269  11.7409  12.5997   H         1 RES1   0.0000
    21 H20      3.7820  13.9598  13.0861   H         1 RES1   0.0000
    22 H29      3.5602  13.0543   7.5454   H         1 RES1   0.0000
@<TRIPOS>BOND
     1     1     5    2
     2     2     6    2
     3     3     5    1
     4     4    10   ar
     5     5     8    1
     6     7     9   ar
     7     8    16    1
     8     9    11   ar
     9    10    11   ar
    10    11    21    1
    11    12     4   ar
    12    13     3    1
    13    14     4    1
    14    15     7    1
    15    17     8    1
    16    18     8    1
    17    19     9    1
    18    20    10    1
    19    22    13    1
    20     6    13    1
    21     7    12   ar
    22    12    13    1
@<TRIPOS>SUBSTRUCTURE
     1 RES1        1 GROUP             0 ****  ****    0  
