@<TRIPOS>MOLECULE
VARTEP
    66    68     1     0     0
SMALL
NO_CHARGES
****
Generated from the CSD

@<TRIPOS>ATOM
     1 F1       7.5698  13.6560   5.3973   F         1 RES1   0.0000
     2 F2       8.8494  11.9851   5.5285   F         1 RES1   0.0000
     3 F3       6.8012  11.7021   5.1049   F         1 RES1   0.0000
     4 O1       8.2978  11.5294   9.8397   O.3       1 RES1   0.0000
     5 O2       2.8997  11.4490   5.8322   O.2       1 RES1   0.0000
     6 O3       8.0943   8.5569  11.2361   O.2       1 RES1   0.0000
     7 O4       9.5562   8.3902   9.6091   O.3       1 RES1   0.0000
     8 O5       5.9806  12.6642   7.5088   O.3       1 RES1   0.0000
     9 O6       5.3249  10.5346   7.7834   O.2       1 RES1   0.0000
    10 O7       2.7376  11.3209   8.0252   O.3       1 RES1   0.0000
    11 C1       7.3470  12.2680   7.2820   C.3       1 RES1   0.0000
    12 C2       3.9151  11.9404  10.5979   C.ar      1 RES1   0.0000
    13 C3       2.4329  10.9218   6.7788   C.2       1 RES1   0.0000
    14 C4       5.0905  11.6932   7.7741   C.2       1 RES1   0.0000
    15 C5       8.7780   7.1958   7.7047   C.ar      1 RES1   0.0000
    16 C6       3.6171  14.1712   9.8593   C.ar      1 RES1   0.0000
    17 C7       9.8214  10.2129  11.0627   C.3       1 RES1   0.0000
    18 C8      10.4713   9.9449  12.4451   C.3       1 RES1   0.0000
    19 C9       1.5140   9.7632   6.7966   C.3       1 RES1   0.0000
    20 C10      8.9111  11.3834  11.1508   C.3       1 RES1   0.0000
    21 C11      8.4569   7.3596   5.2108   C.ar      1 RES1   0.0000
    22 C12      3.6113  14.5763  11.1621   C.ar      1 RES1   0.0000
    23 C13      8.2303  13.1437   8.1293   C.3       1 RES1   0.0000
    24 C14      8.0519  12.9203   9.6054   C.3       1 RES1   0.0000
    25 C15      7.6440  12.4050   5.8294   C.3       1 RES1   0.0000
    26 C16      9.6141  12.7207  11.4010   C.3       1 RES1   0.0000
    27 C17      3.9151  12.3693  11.8931   C.ar      1 RES1   0.0000
    28 C18      3.7704  13.6679  12.1836   C.ar      1 RES1   0.0000
    29 C19      9.5456   6.4453   6.9447   C.ar      1 RES1   0.0000
    30 C20      9.4116   6.3857   5.4170   C.ar      1 RES1   0.0000
    31 C21      9.0355  13.6381  10.4966   C.3       1 RES1   0.0000
    32 C22      7.6373   8.1191   5.9137   C.ar      1 RES1   0.0000
    33 C23      8.8812   7.2047   9.1564   C.3       1 RES1   0.0000
    34 C24      7.9265   8.0298   7.1696   C.ar      1 RES1   0.0000
    35 C25      9.0461   8.9620  10.6616   C.2       1 RES1   0.0000
    36 C26      3.7579  12.8250   9.5707   C.ar      1 RES1   0.0000
    37 C27      3.7502  12.3336   8.1368   C.3       1 RES1   0.0000
    38 H1       7.4598  11.3626   7.5416   H         1 RES1   0.0000
    39 H2       4.0231  11.0141  10.4085   H         1 RES1   0.0000
    40 H3       3.5264  14.8056   9.1621   H         1 RES1   0.0000
    41 H4      10.4993  10.3857  10.4198   H         1 RES1   0.0000
    42 H5       9.7925   9.7721  13.0852   H         1 RES1   0.0000
    43 H6      11.0489   9.1943  12.3823   H         1 RES1   0.0000
    44 H7      10.9708  10.7073  12.7131   H         1 RES1   0.0000
    45 H8       0.7010  10.0104   7.2202   H         1 RES1   0.0000
    46 H9       1.3356   9.4862   5.9044   H         1 RES1   0.0000
    47 H10      1.9161   9.0484   7.2745   H         1 RES1   0.0000
    48 H11      8.2448  11.2315  11.8115   H         1 RES1   0.0000
    49 H12      8.3643   7.5383   4.2802   H         1 RES1   0.0000
    50 H13      3.4927  15.4966  11.3701   H         1 RES1   0.0000
    51 H14      9.1367  12.9680   7.9043   H         1 RES1   0.0000
    52 H15      8.0288  14.0521   7.9362   H         1 RES1   0.0000
    53 H16      7.1638  13.1377   9.8612   H         1 RES1   0.0000
    54 H17      9.4723  13.0037  12.2961   H         1 RES1   0.0000
    55 H18     10.5456  12.6374  11.2380   H         1 RES1   0.0000
    56 H19      4.0269  11.7409  12.5997   H         1 RES1   0.0000
    57 H20      3.7820  13.9598  13.0861   H         1 RES1   0.0000
    58 H21     10.2148   5.9151   7.3626   H         1 RES1   0.0000
    59 H22      9.8648   5.8317   4.7928   H         1 RES1   0.0000
    60 H23      9.7153  14.0312   9.9606   H         1 RES1   0.0000
    61 H24      8.5813  14.3201  10.9793   H         1 RES1   0.0000
    62 H25      6.9362   8.6463   5.5510   H         1 RES1   0.0000
    63 H26      9.3662   6.4393   9.4451   H         1 RES1   0.0000
    64 H27      8.0056   7.1809   9.5341   H         1 RES1   0.0000
    65 H28      7.4849   8.6314   7.7553   H         1 RES1   0.0000
    66 H29      3.5602  13.0543   7.5454   H         1 RES1   0.0000
@<TRIPOS>BOND
     1     1    25    1
     2     2    25    1
     3     3    25    1
     4     4    20    1
     5     5    13    2
     6     6    35    2
     7     7    33    1
     8     8    11    1
     9     9    14    2
    10    10    13    1
    11    11    23    1
    12    12    27   ar
    13    13    19    1
    14    14     8    1
    15    15    29   ar
    16    16    22   ar
    17    17    18    1
    18    18    42    1
    19    19    45    1
    20    20    17    1
    21    21    30   ar
    22    22    28   ar
    23    23    24    1
    24    24     4    1
    25    25    11    1
    26    26    20    1
    27    27    28   ar
    28    28    57    1
    29    29    30   ar
    30    30    59    1
    31    31    24    1
    32    32    21   ar
    33    33    15    1
    34    34    15   ar
    35    35     7    1
    36    36    12   ar
    37    37    10    1
    38    38    11    1
    39    39    12    1
    40    40    16    1
    41    41    17    1
    42    43    18    1
    43    44    18    1
    44    46    19    1
    45    47    19    1
    46    48    20    1
    47    49    21    1
    48    50    22    1
    49    51    23    1
    50    52    23    1
    51    53    24    1
    52    54    26    1
    53    55    26    1
    54    56    27    1
    55    58    29    1
    56    60    31    1
    57    61    31    1
    58    62    32    1
    59    63    33    1
    60    64    33    1
    61    65    34    1
    62    66    37    1
    63    14    37    1
    64    16    36   ar
    65    17    35    1
    66    26    31    1
    67    32    34   ar
    68    36    37    1
@<TRIPOS>SUBSTRUCTURE
     1 RES1        1 GROUP             0 ****  ****    0  
@<TRIPOS>CRYSIN
    9.6430   29.7840    9.3720   90.0000   90.0000   90.0000    19     1
