@<TRIPOS>MOLECULE
01
    23    24     1     0     0
SMALL
NO_CHARGES
****
Generated from the CSD

@<TRIPOS>ATOM
     1 C10      1.2824   5.8659   7.3869   C.ar      1 RES1   0.0000
     2 C11      1.0509   6.2933   6.0735   C.ar      1 RES1   0.0000
     3 O3       1.5744   7.5065   5.6946   O.3       1 RES1   0.0000
     4 C12      0.6353   8.5893   5.7059   C.3       1 RES1   0.0000
     5 H15     -0.1376   8.3572   5.1493   H         1 RES1   0.0000
     6 H16      1.0632   9.3965   5.3516   H         1 RES1   0.0000
     7 H17      0.3377   8.7543   6.6252   H         1 RES1   0.0000
     8 C13      0.3993   5.5190   5.0979   C.ar      1 RES1   0.0000
     9 C14      0.2210   5.9806   3.6801   C.3       1 RES1   0.0000
    10 H18      0.2474   5.2067   3.0788   H         1 RES1   0.0000
    11 H19      0.9436   6.6011   3.4458   H         1 RES1   0.0000
    12 H20     -0.6422   6.4352   3.5910   H         1 RES1   0.0000
    13 C15     -0.0069   4.2705   5.5164   C.ar      1 RES1   0.0000
    14 C16      0.2008   3.8156   6.8066   C.ar      1 RES1   0.0000
    15 C17      0.8485   4.5907   7.7598   C.ar      1 RES1   0.0000
    16 O4       1.0895   4.1849   9.0227   O.3       1 RES1   0.0000
    17 H21      0.9121   3.3649   9.1347   H         1 RES1   0.0000
    18 C18     -0.6470   3.1636   4.7465   C.3       1 RES1   0.0000
    19 H22     -1.5262   3.4469   4.3890   H         1 RES1   0.0000
    20 H23     -0.0706   2.8811   3.9923   H         1 RES1   0.0000
    21 O5      -0.8033   2.0898   5.7035   O.3       1 RES1   0.0000
    22 C19     -0.2993   2.4600   6.9084   C.2       1 RES1   0.0000
    23 O6      -0.3166   1.7149   7.8578   O.2       1 RES1   0.0000
@<TRIPOS>BOND
     1     2     1   ar
     2     3     2    1
     3     4     3    1
     4     5     4    1
     5     6     4    1
     6     7     4    1
     7     8     2   ar
     8     9     8    1
     9    10     9    1
    10    11     9    1
    11    12     9    1
    12    13     8   ar
    13    14    13   ar
    14    15     1   ar
    15    16    15    1
    16    17    16    1
    17    18    13    1
    18    19    18    1
    19    20    18    1
    20    21    18    1
    21    22    14    1
    22    23    22    2
    23    14    15   ar
    24    21    22    1
@<TRIPOS>SUBSTRUCTURE
     1 RES1        1 GROUP             0 ****  ****    0  
