@<TRIPOS>MOLECULE
WAJYUC
    62    64     1     0     0
SMALL
NO_CHARGES
****
Generated from the CSD

@<TRIPOS>ATOM
     1 C1       2.0376   6.7140   8.3795   C.3       1 RES1   0.0000
     2 H1       1.5872   6.6636   9.2605   H         1 RES1   0.0000
     3 H2       2.0202   7.6581   8.0818   H         1 RES1   0.0000
     4 C2       3.4742   6.2641   8.5267   C.2       1 RES1   0.0000
     5 H3       3.9567   6.1043   7.7239   H         1 RES1   0.0000
     6 C3       4.1269   6.0709   9.6669   C.2       1 RES1   0.0000
     7 C4       3.5022   6.2833  11.0188   C.3       1 RES1   0.0000
     8 H4       3.6498   7.2089  11.3058   H         1 RES1   0.0000
     9 H5       3.9092   5.6709  11.6670   H         1 RES1   0.0000
    10 H6       2.5383   6.1081  10.9651   H         1 RES1   0.0000
    11 C5       5.5742   5.6384   9.7337   C.3       1 RES1   0.0000
    12 H7       6.0736   6.3010  10.2734   H         1 RES1   0.0000
    13 H8       5.6186   4.7724  10.2105   H         1 RES1   0.0000
    14 C6       6.2719   5.4863   8.4018   C.3       1 RES1   0.0000
    15 H9       5.8228   4.7714   7.8840   H         1 RES1   0.0000
    16 H10      6.1817   6.3308   7.8931   H         1 RES1   0.0000
    17 C7       7.7315   5.1508   8.5348   C.2       1 RES1   0.0000
    18 O1       8.3602   5.1051   9.5450   O.2       1 RES1   0.0000
    19 O2       8.2823   5.0017   7.3453   O.3       1 RES1   0.0000
    20 C8       9.7142   4.8012   7.2593   C.3       1 RES1   0.0000
    21 H11      9.9194   4.1292   6.5624   H         1 RES1   0.0000
    22 H12     10.0610   4.4685   8.1252   H         1 RES1   0.0000
    23 C9      10.3648   6.1178   6.9145   C.3       1 RES1   0.0000
    24 H13      9.8394   6.5657   6.2057   H         1 RES1   0.0000
    25 H14     10.3595   6.7027   7.7125   H         1 RES1   0.0000
    26 C10      1.2824   5.8659   7.3869   C.ar      1 RES1   0.0000
    27 C11      1.0509   6.2933   6.0735   C.ar      1 RES1   0.0000
    28 O3       1.5744   7.5065   5.6946   O.3       1 RES1   0.0000
    29 C12      0.6353   8.5893   5.7059   C.3       1 RES1   0.0000
    30 H15     -0.1376   8.3572   5.1493   H         1 RES1   0.0000
    31 H16      1.0632   9.3965   5.3516   H         1 RES1   0.0000
    32 H17      0.3377   8.7543   6.6252   H         1 RES1   0.0000
    33 C13      0.3993   5.5190   5.0979   C.ar      1 RES1   0.0000
    34 C14      0.2210   5.9806   3.6801   C.3       1 RES1   0.0000
    35 H18      0.2474   5.2067   3.0788   H         1 RES1   0.0000
    36 H19      0.9436   6.6011   3.4458   H         1 RES1   0.0000
    37 H20     -0.6422   6.4352   3.5910   H         1 RES1   0.0000
    38 C15     -0.0069   4.2705   5.5164   C.ar      1 RES1   0.0000
    39 C16      0.2008   3.8156   6.8066   C.ar      1 RES1   0.0000
    40 C17      0.8485   4.5907   7.7598   C.ar      1 RES1   0.0000
    41 O4       1.0895   4.1849   9.0227   O.3       1 RES1   0.0000
    42 H21      0.9121   3.3649   9.1347   H         1 RES1   0.0000
    43 C18     -0.6470   3.1636   4.7465   C.3       1 RES1   0.0000
    44 H22     -1.5262   3.4469   4.3890   H         1 RES1   0.0000
    45 H23     -0.0706   2.8811   3.9923   H         1 RES1   0.0000
    46 O5      -0.8033   2.0898   5.7035   O.3       1 RES1   0.0000
    47 C19     -0.2993   2.4600   6.9084   C.2       1 RES1   0.0000
    48 O6      -0.3166   1.7149   7.8578   O.2       1 RES1   0.0000
    49 N1      11.7371   5.9433   6.4565   N.3       1 RES1   0.0000
    50 C20     12.2724   7.2154   5.9844   C.3       1 RES1   0.0000
    51 H24     12.2344   7.8828   6.7156   H         1 RES1   0.0000
    52 H25     11.7192   7.5500   5.2339   H         1 RES1   0.0000
    53 C21     13.6981   7.0504   5.5252   C.3       1 RES1   0.0000
    54 H26     13.7257   6.4222   4.7606   H         1 RES1   0.0000
    55 H27     14.0463   7.9238   5.2156   H         1 RES1   0.0000
    56 O7      14.5248   6.5572   6.5715   O.3       1 RES1   0.0000
    57 C22     14.0180   5.3050   7.0187   C.3       1 RES1   0.0000
    58 H28     14.5905   4.9597   7.7491   H         1 RES1   0.0000
    59 H29     14.0466   4.6540   6.2731   H         1 RES1   0.0000
    60 C23     12.5999   5.4382   7.5149   C.3       1 RES1   0.0000
    61 H30     12.2709   4.5552   7.8188   H         1 RES1   0.0000
    62 H31     12.5752   6.0577   8.2864   H         1 RES1   0.0000
@<TRIPOS>BOND
     1     1     2    1
     2     3     1    1
     3     4     1    1
     4     5     4    1
     5     6     4    2
     6     7     6    1
     7     8     7    1
     8     9     7    1
     9    10     7    1
    10    11     6    1
    11    12    11    1
    12    13    11    1
    13    14    11    1
    14    15    14    1
    15    16    14    1
    16    17    14    1
    17    18    17    2
    18    19    17    1
    19    20    19    1
    20    21    20    1
    21    22    20    1
    22    23    20    1
    23    24    23    1
    24    25    23    1
    25    26     1    1
    26    27    26   ar
    27    28    27    1
    28    29    28    1
    29    30    29    1
    30    31    29    1
    31    32    29    1
    32    33    27   ar
    33    34    33    1
    34    35    34    1
    35    36    34    1
    36    37    34    1
    37    38    33   ar
    38    39    38   ar
    39    40    26   ar
    40    41    40    1
    41    42    41    1
    42    43    38    1
    43    44    43    1
    44    45    43    1
    45    46    43    1
    46    47    39    1
    47    48    47    2
    48    49    23    1
    49    50    49    1
    50    51    50    1
    51    52    50    1
    52    53    50    1
    53    54    53    1
    54    55    53    1
    55    56    53    1
    56    57    56    1
    57    58    57    1
    58    59    57    1
    59    60    49    1
    60    61    60    1
    61    62    60    1
    62    39    40   ar
    63    46    47    1
    64    57    60    1
@<TRIPOS>SUBSTRUCTURE
     1 RES1        1 GROUP             0 ****  ****    0  
@<TRIPOS>CRYSIN
   20.7840    9.3210   11.9373   90.0000  106.7190   90.0000    14     1
