@<TRIPOS>MOLECULE
02
    14    14     1     0     0
SMALL
NO_CHARGES
****
Generated from the CSD

@<TRIPOS>ATOM
     1 N1      11.7371   5.9433   6.4565   N.2       1 RES2   0.0000
     2 C20     12.2724   7.2154   5.9844   C.3       1 RES2   0.0000
     3 H24     12.2344   7.8828   6.7156   H         1 RES2   0.0000
     4 H25     11.7192   7.5500   5.2339   H         1 RES2   0.0000
     5 C21     13.6981   7.0504   5.5252   C.3       1 RES2   0.0000
     6 H26     13.7257   6.4222   4.7606   H         1 RES2   0.0000
     7 H27     14.0463   7.9238   5.2156   H         1 RES2   0.0000
     8 O7      14.5248   6.5572   6.5715   O.3       1 RES2   0.0000
     9 C22     14.0180   5.3050   7.0187   C.3       1 RES2   0.0000
    10 H28     14.5905   4.9597   7.7491   H         1 RES2   0.0000
    11 H29     14.0466   4.6540   6.2731   H         1 RES2   0.0000
    12 C23     12.5999   5.4382   7.5149   C.3       1 RES2   0.0000
    13 H30     12.2709   4.5552   7.8188   H         1 RES2   0.0000
    14 H31     12.5752   6.0577   8.2864   H         1 RES2   0.0000
@<TRIPOS>BOND
     1     2     1    1
     2     3     2    1
     3     4     2    1
     4     5     2    1
     5     6     5    1
     6     7     5    1
     7     8     5    1
     8     9     8    1
     9    10     9    1
    10    11     9    1
    11    12     1    1
    12    13    12    1
    13    14    12    1
    14     9    12    1
@<TRIPOS>SUBSTRUCTURE
     1 RES2        1 GROUP             0 ****  ****    0  
