@<TRIPOS>MOLECULE
01
    19    19     1     0     0
SMALL
NO_CHARGES
****
Generated from the CSD

@<TRIPOS>ATOM
     1 O1       7.9300  11.3907  -2.4613   O.3       1 RES1   0.0000
     2 O2       6.8776  10.6354   2.0711   O.3       1 RES1   0.0000
     3 C26      5.1380  10.5027   0.4864   C.ar      1 RES1   0.0000
     4 C27      6.4958  10.7212   0.7705   C.ar      1 RES1   0.0000
     5 C28      7.3867  11.0099  -0.2448   C.ar      1 RES1   0.0000
     6 H36      8.2844  11.1490  -0.0451   H         1 RES1   0.0000
     7 C29      6.9561  11.0949  -1.5596   C.ar      1 RES1   0.0000
     8 C30      5.6269  10.8874  -1.8766   C.ar      1 RES1   0.0000
     9 H37      5.3302  10.9427  -2.7557   H         1 RES1   0.0000
    10 C31      4.7513  10.5927  -0.8470   C.ar      1 RES1   0.0000
    11 H38      3.8572  10.4475  -1.0569   H         1 RES1   0.0000
    12 C32      7.5865  11.4675  -3.8363   C.3       1 RES1   0.0000
    13 H39      8.3326  11.8111  -4.3336   H         1 RES1   0.0000
    14 H40      6.8329  12.0517  -3.9455   H         1 RES1   0.0000
    15 H41      7.3626  10.5919  -4.1600   H         1 RES1   0.0000
    16 C33      8.2229  10.8580   2.4340   C.3       1 RES1   0.0000
    17 H42      8.7859  10.2302   1.9747   H         1 RES1   0.0000
    18 H43      8.3219  10.7432   3.3815   H         1 RES1   0.0000
    19 H44      8.4759  11.7516   2.1911   H         1 RES1   0.0000
@<TRIPOS>BOND
     1     1     7    1
     2     2     4    1
     3     4     3   ar
     4     5     4   ar
     5     6     5    1
     6     7     5   ar
     7     8     7   ar
     8     9     8    1
     9    10     3   ar
    10    11    10    1
    11    12     1    1
    12    13    12    1
    13    14    12    1
    14    15    12    1
    15    16     2    1
    16    17    16    1
    17    18    16    1
    18    19    16    1
    19     8    10   ar
@<TRIPOS>SUBSTRUCTURE
     1 RES1        1 GROUP             0 ****  ****    0  
