@<TRIPOS>MOLECULE
WAMYAO
    82    86     1     0     0
SMALL
NO_CHARGES
****
Generated from the CSD

@<TRIPOS>ATOM
     1 O1       7.9300  11.3907  -2.4613   O.3       1 RES1   0.0000
     2 O2       6.8776  10.6354   2.0711   O.3       1 RES1   0.0000
     3 O3       2.9214  10.0997   1.1159   O.2       1 RES1   0.0000
     4 O4       3.1409   6.4465   4.9235   O.3       1 RES1   0.0000
     5 H1       2.5035   6.6196   4.4380   H         1 RES1   0.0000
     6 O5       7.8257   7.0763  14.8707   O.2       1 RES1   0.0000
     7 C1       5.9386   6.6808  13.5559   C.2       1 RES1   0.0000
     8 H2       5.3660   6.7730  14.2834   H         1 RES1   0.0000
     9 C2       7.3579   6.9210  13.7592   C.2       1 RES1   0.0000
    10 C3       8.2308   6.8720  12.5471   C.3       1 RES1   0.0000
    11 H3       8.5868   5.9749  12.4459   H         1 RES1   0.0000
    12 H4       8.9780   7.4779  12.6665   H         1 RES1   0.0000
    13 C4       7.4699   7.2554  11.2803   C.3       1 RES1   0.0000
    14 H5       8.0523   7.1471  10.5118   H         1 RES1   0.0000
    15 H6       7.2138   8.1896  11.3312   H         1 RES1   0.0000
    16 C5       6.2171   6.3983  11.0891   C.3       1 RES1   0.0000
    17 H7       6.5095   5.4876  10.8748   H         1 RES1   0.0000
    18 C6       5.4139   6.3340  12.3744   C.2       1 RES1   0.0000
    19 C7       4.0257   5.7771  12.2902   C.3       1 RES1   0.0000
    20 H8       3.5405   6.0315  13.0913   H         1 RES1   0.0000
    21 H9       4.0792   4.8094  12.2745   H         1 RES1   0.0000
    22 C8       3.2371   6.2412  11.0771   C.3       1 RES1   0.0000
    23 H10      2.9882   7.1717  11.1922   H         1 RES1   0.0000
    24 H11      2.4223   5.7200  11.0053   H         1 RES1   0.0000
    25 C9       4.0457   6.0910   9.7961   C.3       1 RES1   0.0000
    26 H12      4.2710   5.1452   9.6741   H         1 RES1   0.0000
    27 C10      5.3491   6.9014   9.9109   C.3       1 RES1   0.0000
    28 H13      5.1006   7.8290  10.1064   H         1 RES1   0.0000
    29 C11      3.2624   6.5716   8.5786   C.3       1 RES1   0.0000
    30 H14      3.0831   7.5243   8.7229   H         1 RES1   0.0000
    31 C12      1.9052   5.9127   8.2977   C.3       1 RES1   0.0000
    32 H15      1.2187   6.2677   8.8834   H         1 RES1   0.0000
    33 H16      1.9549   4.9515   8.4143   H         1 RES1   0.0000
    34 C13      1.6200   6.2772   6.8298   C.3       1 RES1   0.0000
    35 H17      0.8626   6.8805   6.7767   H         1 RES1   0.0000
    36 H18      1.4099   5.4765   6.3227   H         1 RES1   0.0000
    37 C14      6.1266   6.9059   8.5873   C.3       1 RES1   0.0000
    38 H19      6.4696   6.0139   8.4206   H         1 RES1   0.0000
    39 H20      6.8858   7.5039   8.6698   H         1 RES1   0.0000
    40 C15      5.2735   7.3455   7.3840   C.3       1 RES1   0.0000
    41 H21      5.0067   8.2708   7.4990   H         1 RES1   0.0000
    42 H22      5.8041   7.2849   6.5737   H         1 RES1   0.0000
    43 C16      4.0229   6.4684   7.2408   C.3       1 RES1   0.0000
    44 C17      4.3964   5.0023   6.8987   C.3       1 RES1   0.0000
    45 H23      4.6952   4.5686   7.7137   H         1 RES1   0.0000
    46 H24      3.5920   4.5457   6.6069   H         1 RES1   0.0000
    47 C18      2.8902   6.9591   6.2495   C.3       1 RES1   0.0000
    48 C19      5.4673   4.8047   5.8353   C.3       1 RES1   0.0000
    49 H25      5.1861   5.2199   5.0172   H         1 RES1   0.0000
    50 H26      5.6023   3.8657   5.6883   H         1 RES1   0.0000
    51 H27      6.2890   5.2035   6.1311   H         1 RES1   0.0000
    52 C20      2.8228   8.4793   6.1675   C.2       1 RES1   0.0000
    53 C21      1.9965   9.2188   6.8856   C.2       1 RES1   0.0000
    54 H28      1.4207   8.9393   7.4649   H         1 RES1   0.0000
    55 H29      2.1893  10.1160   6.7982   H         1 RES1   0.0000
    56 C22      3.7965   9.1394   5.2145   C.3       1 RES1   0.0000
    57 H30      4.5847   8.5782   5.1490   H         1 RES1   0.0000
    58 H31      4.0735   9.9847   5.6008   H         1 RES1   0.0000
    59 C23      3.2797   9.4074   3.7958   C.3       1 RES1   0.0000
    60 H32      2.8856   8.5989   3.4327   H         1 RES1   0.0000
    61 H33      2.5946  10.0936   3.8211   H         1 RES1   0.0000
    62 C24      4.4222   9.8593   2.9127   C.3       1 RES1   0.0000
    63 H34      4.8094  10.6589   3.3017   H         1 RES1   0.0000
    64 H35      5.1056   9.1711   2.9237   H         1 RES1   0.0000
    65 C25      4.0734  10.1523   1.4864   C.2       1 RES1   0.0000
    66 C26      5.1380  10.5027   0.4864   C.ar      1 RES1   0.0000
    67 C27      6.4958  10.7212   0.7705   C.ar      1 RES1   0.0000
    68 C28      7.3867  11.0099  -0.2448   C.ar      1 RES1   0.0000
    69 H36      8.2844  11.1490  -0.0451   H         1 RES1   0.0000
    70 C29      6.9561  11.0949  -1.5596   C.ar      1 RES1   0.0000
    71 C30      5.6269  10.8874  -1.8766   C.ar      1 RES1   0.0000
    72 H37      5.3302  10.9427  -2.7557   H         1 RES1   0.0000
    73 C31      4.7513  10.5927  -0.8470   C.ar      1 RES1   0.0000
    74 H38      3.8572  10.4475  -1.0569   H         1 RES1   0.0000
    75 C32      7.5865  11.4675  -3.8363   C.3       1 RES1   0.0000
    76 H39      8.3326  11.8111  -4.3336   H         1 RES1   0.0000
    77 H40      6.8329  12.0517  -3.9455   H         1 RES1   0.0000
    78 H41      7.3626  10.5919  -4.1600   H         1 RES1   0.0000
    79 C33      8.2229  10.8580   2.4340   C.3       1 RES1   0.0000
    80 H42      8.7859  10.2302   1.9747   H         1 RES1   0.0000
    81 H43      8.3219  10.7432   3.3815   H         1 RES1   0.0000
    82 H44      8.4759  11.7516   2.1911   H         1 RES1   0.0000
@<TRIPOS>BOND
     1     1    70    1
     2     2    67    1
     3     3    65    2
     4     4     5    1
     5     6     9    2
     6     7     8    1
     7     9     7    1
     8    10     9    1
     9    11    10    1
    10    12    10    1
    11    13    10    1
    12    14    13    1
    13    15    13    1
    14    16    13    1
    15    17    16    1
    16    18     7    2
    17    19    18    1
    18    20    19    1
    19    21    19    1
    20    22    19    1
    21    23    22    1
    22    24    22    1
    23    25    22    1
    24    26    25    1
    25    27    16    1
    26    28    27    1
    27    29    25    1
    28    30    29    1
    29    31    29    1
    30    32    31    1
    31    33    31    1
    32    34    31    1
    33    35    34    1
    34    36    34    1
    35    37    27    1
    36    38    37    1
    37    39    37    1
    38    40    37    1
    39    41    40    1
    40    42    40    1
    41    43    29    1
    42    44    43    1
    43    45    44    1
    44    46    44    1
    45    47     4    1
    46    48    44    1
    47    49    48    1
    48    50    48    1
    49    51    48    1
    50    52    47    1
    51    53    52    2
    52    54    53    1
    53    55    53    1
    54    56    52    1
    55    57    56    1
    56    58    56    1
    57    59    56    1
    58    60    59    1
    59    61    59    1
    60    62    59    1
    61    63    62    1
    62    64    62    1
    63    65    62    1
    64    66    65    1
    65    67    66   ar
    66    68    67   ar
    67    69    68    1
    68    70    68   ar
    69    71    70   ar
    70    72    71    1
    71    73    66   ar
    72    74    73    1
    73    75     1    1
    74    76    75    1
    75    77    75    1
    76    78    75    1
    77    79     2    1
    78    80    79    1
    79    81    79    1
    80    82    79    1
    81    16    18    1
    82    25    27    1
    83    34    47    1
    84    40    43    1
    85    43    47    1
    86    71    73   ar
@<TRIPOS>SUBSTRUCTURE
     1 RES1        1 GROUP             0 ****  ****    0  
@<TRIPOS>CRYSIN
    8.1690   16.3425   10.9598   90.0000   94.2610   90.0000     4     1
