@<TRIPOS>MOLECULE
02
    48    51     1     0     0
SMALL
NO_CHARGES
****
Generated from the CSD

@<TRIPOS>ATOM
     1 O4       3.1409   6.4465   4.9235   O.3       1 RES2   0.0000
     2 H1       2.5035   6.6196   4.4380   H         1 RES2   0.0000
     3 O5       7.8257   7.0763  14.8707   O.2       1 RES2   0.0000
     4 C1       5.9386   6.6808  13.5559   C.2       1 RES2   0.0000
     5 H2       5.3660   6.7730  14.2834   H         1 RES2   0.0000
     6 C2       7.3579   6.9210  13.7592   C.2       1 RES2   0.0000
     7 C3       8.2308   6.8720  12.5471   C.3       1 RES2   0.0000
     8 H3       8.5868   5.9749  12.4459   H         1 RES2   0.0000
     9 H4       8.9780   7.4779  12.6665   H         1 RES2   0.0000
    10 C4       7.4699   7.2554  11.2803   C.3       1 RES2   0.0000
    11 H5       8.0523   7.1471  10.5118   H         1 RES2   0.0000
    12 H6       7.2138   8.1896  11.3312   H         1 RES2   0.0000
    13 C5       6.2171   6.3983  11.0891   C.3       1 RES2   0.0000
    14 H7       6.5095   5.4876  10.8748   H         1 RES2   0.0000
    15 C6       5.4139   6.3340  12.3744   C.2       1 RES2   0.0000
    16 C7       4.0257   5.7771  12.2902   C.3       1 RES2   0.0000
    17 H8       3.5405   6.0315  13.0913   H         1 RES2   0.0000
    18 H9       4.0792   4.8094  12.2745   H         1 RES2   0.0000
    19 C8       3.2371   6.2412  11.0771   C.3       1 RES2   0.0000
    20 H10      2.9882   7.1717  11.1922   H         1 RES2   0.0000
    21 H11      2.4223   5.7200  11.0053   H         1 RES2   0.0000
    22 C9       4.0457   6.0910   9.7961   C.3       1 RES2   0.0000
    23 H12      4.2710   5.1452   9.6741   H         1 RES2   0.0000
    24 C10      5.3491   6.9014   9.9109   C.3       1 RES2   0.0000
    25 H13      5.1006   7.8290  10.1064   H         1 RES2   0.0000
    26 C11      3.2624   6.5716   8.5786   C.3       1 RES2   0.0000
    27 H14      3.0831   7.5243   8.7229   H         1 RES2   0.0000
    28 C12      1.9052   5.9127   8.2977   C.3       1 RES2   0.0000
    29 H15      1.2187   6.2677   8.8834   H         1 RES2   0.0000
    30 H16      1.9549   4.9515   8.4143   H         1 RES2   0.0000
    31 C13      1.6200   6.2772   6.8298   C.3       1 RES2   0.0000
    32 H17      0.8626   6.8805   6.7767   H         1 RES2   0.0000
    33 H18      1.4099   5.4765   6.3227   H         1 RES2   0.0000
    34 C14      6.1266   6.9059   8.5873   C.3       1 RES2   0.0000
    35 H19      6.4696   6.0139   8.4206   H         1 RES2   0.0000
    36 H20      6.8858   7.5039   8.6698   H         1 RES2   0.0000
    37 C15      5.2735   7.3455   7.3840   C.3       1 RES2   0.0000
    38 H21      5.0067   8.2708   7.4990   H         1 RES2   0.0000
    39 H22      5.8041   7.2849   6.5737   H         1 RES2   0.0000
    40 C16      4.0229   6.4684   7.2408   C.3       1 RES2   0.0000
    41 C17      4.3964   5.0023   6.8987   C.3       1 RES2   0.0000
    42 H23      4.6952   4.5686   7.7137   H         1 RES2   0.0000
    43 H24      3.5920   4.5457   6.6069   H         1 RES2   0.0000
    44 C18      2.8902   6.9591   6.2495   C.3       1 RES2   0.0000
    45 C19      5.4673   4.8047   5.8353   C.3       1 RES2   0.0000
    46 H25      5.1861   5.2199   5.0172   H         1 RES2   0.0000
    47 H26      5.6023   3.8657   5.6883   H         1 RES2   0.0000
    48 H27      6.2890   5.2035   6.1311   H         1 RES2   0.0000
@<TRIPOS>BOND
     1     1     2    1
     2     3     6    2
     3     4     5    1
     4     6     4    1
     5     7     6    1
     6     8     7    1
     7     9     7    1
     8    10     7    1
     9    11    10    1
    10    12    10    1
    11    13    10    1
    12    14    13    1
    13    15     4    2
    14    16    15    1
    15    17    16    1
    16    18    16    1
    17    19    16    1
    18    20    19    1
    19    21    19    1
    20    22    19    1
    21    23    22    1
    22    24    13    1
    23    25    24    1
    24    26    22    1
    25    27    26    1
    26    28    26    1
    27    29    28    1
    28    30    28    1
    29    31    28    1
    30    32    31    1
    31    33    31    1
    32    34    24    1
    33    35    34    1
    34    36    34    1
    35    37    34    1
    36    38    37    1
    37    39    37    1
    38    40    26    1
    39    41    40    1
    40    42    41    1
    41    43    41    1
    42    44     1    1
    43    45    41    1
    44    46    45    1
    45    47    45    1
    46    48    45    1
    47    13    15    1
    48    22    24    1
    49    31    44    1
    50    37    40    1
    51    40    44    1
@<TRIPOS>SUBSTRUCTURE
     1 RES2        1 GROUP             0 ****  ****    0  
