@<TRIPOS>MOLECULE
02
    14    14     1     0     0
SMALL
NO_CHARGES
****
Generated from the CSD

@<TRIPOS>ATOM
     1 C1       2.8766   1.3347   7.2544   C.ar      1 RES2   0.0000
     2 C2       2.5862   0.4949   6.2210   C.ar      1 RES2   0.0000
     3 C3       3.3031   0.5549   5.0351   C.ar      1 RES2   0.0000
     4 C4       4.3195   1.4647   4.8877   C.ar      1 RES2   0.0000
     5 C5       4.5819   2.3445   5.9176   C.ar      1 RES2   0.0000
     6 C6       3.8795   2.2745   7.0916   C.ar      1 RES2   0.0000
     7 C7       2.1056   1.3147   8.5569   C.3       1 RES2   0.0000
     8 H1       2.0000  -0.4199   6.2895   H         1 RES2   0.0000
     9 H2       3.0890  -0.0550   4.2673   H         1 RES2   0.0000
    10 H3       4.8055   1.6597   3.9759   H         1 RES2   0.0000
    11 H4       5.3030   3.0444   5.8097   H         1 RES2   0.0000
    12 H5       4.1029   2.9094   7.9690   H         1 RES2   0.0000
    13 H6       2.7368   1.1548   9.3058   H         1 RES2   0.0000
    14 H7       1.6648   2.2196   8.6888   H         1 RES2   0.0000
@<TRIPOS>BOND
     1     1     2   ar
     2     2     3   ar
     3     3     4   ar
     4     4     5   ar
     5     5     6   ar
     6     6     1   ar
     7     7     1    1
     8     8     2    1
     9     9     3    1
    10    10     4    1
    11    11     5    1
    12    12     6    1
    13    13     7    1
    14    14     7    1
@<TRIPOS>SUBSTRUCTURE
     1 RES2        1 GROUP             0 ****  ****    0  
