@<TRIPOS>MOLECULE
01
    15    15     1     0     0
SMALL
NO_CHARGES
****
Generated from the CSD

@<TRIPOS>ATOM
     1 O7      -7.8412  -0.0450  22.0819   O.3       1 RES1   0.0000
     2 C16     -4.8152   1.2348  17.4770   C.3       1 RES1   0.0000
     3 C17     -5.5824   0.9263  18.7366   C.ar      1 RES1   0.0000
     4 C18     -6.7001   1.6547  19.0931   C.ar      1 RES1   0.0000
     5 C19     -7.4357   1.3197  20.2225   C.ar      1 RES1   0.0000
     6 C20     -7.0675   0.2350  21.0040   C.ar      1 RES1   0.0000
     7 C21     -5.9437  -0.4899  20.6698   C.ar      1 RES1   0.0000
     8 C22     -5.2100  -0.1500  19.5370   C.ar      1 RES1   0.0000
     9 H19     -5.1034   2.2845  17.1377   H         1 RES1   0.0000
    10 H20     -3.7723   1.0348  17.4119   H         1 RES1   0.0000
    11 H21     -7.0298   2.2845  18.2688   H         1 RES1   0.0000
    12 H22     -8.1019   1.8746  20.5481   H         1 RES1   0.0000
    13 H23     -7.4294  -0.6549  22.5875   H         1 RES1   0.0000
    14 H24     -5.4969  -1.2497  21.4221   H         1 RES1   0.0000
    15 H25     -4.3875  -0.8398  19.1428   H         1 RES1   0.0000
@<TRIPOS>BOND
     1     1     6    1
     2     3     2    1
     3     4     3   ar
     4     5     4   ar
     5     6     5   ar
     6     7     6   ar
     7     8     3   ar
     8     9     2    1
     9    10     2    1
    10    11     4    1
    11    12     5    1
    12    13     1    1
    13    14     7    1
    14    15     8    1
    15     7     8   ar
@<TRIPOS>SUBSTRUCTURE
     1 RES1        1 GROUP             0 ****  ****    0  
