@<TRIPOS>MOLECULE
WASVAN
    57    58     1     0     0
SMALL
NO_CHARGES
****
Generated from the CSD

@<TRIPOS>ATOM
     1 O1       1.1182   0.2764   8.4832   O.3       1 RES1   0.0000
     2 O2       0.5845   0.5939  10.6614   O.2       1 RES1   0.0000
     3 O3      -2.6966   0.5004  10.3597   O.2       1 RES1   0.0000
     4 O4      -3.9573  -1.4587  14.5088   O.2       1 RES1   0.0000
     5 O5      -7.4039  -0.6189  16.5105   O.2       1 RES1   0.0000
     6 O6      -7.0982   1.3647  15.5079   O.3       1 RES1   0.0000
     7 O7      -7.8412  -0.0450  22.0819   O.3       1 RES1   0.0000
     8 N1      -0.4760  -0.9468   9.4000   N.am      1 RES1   0.0000
     9 N2      -2.5534  -0.5459  12.3357   N.am      1 RES1   0.0000
    10 N3      -4.5006   0.6559  15.1103   N.am      1 RES1   0.0000
    11 C1       2.8766   1.3347   7.2544   C.ar      1 RES1   0.0000
    12 C2       2.5862   0.4949   6.2210   C.ar      1 RES1   0.0000
    13 C3       3.3031   0.5549   5.0351   C.ar      1 RES1   0.0000
    14 C4       4.3195   1.4647   4.8877   C.ar      1 RES1   0.0000
    15 C5       4.5819   2.3445   5.9176   C.ar      1 RES1   0.0000
    16 C6       3.8795   2.2745   7.0916   C.ar      1 RES1   0.0000
    17 C7       2.1056   1.3147   8.5569   C.3       1 RES1   0.0000
    18 C8       0.4326   0.0300   9.6040   C.2       1 RES1   0.0000
    19 C9      -1.2380  -1.4247  10.5380   C.3       1 RES1   0.0000
    20 C10     -2.2253  -0.4054  11.0641   C.2       1 RES1   0.0000
    21 C11     -3.5619   0.3149  12.9252   C.3       1 RES1   0.0000
    22 C12     -4.0220  -0.2539  14.2551   C.2       1 RES1   0.0000
    23 C13     -5.1878   0.2799  16.3322   C.3       1 RES1   0.0000
    24 C14     -6.6954   0.2599  16.1283   C.2       1 RES1   0.0000
    25 C15     -8.5282   1.5647  15.3434   C.3       1 RES1   0.0000
    26 C16     -4.8152   1.2348  17.4770   C.3       1 RES1   0.0000
    27 C17     -5.5824   0.9263  18.7366   C.ar      1 RES1   0.0000
    28 C18     -6.7001   1.6547  19.0931   C.ar      1 RES1   0.0000
    29 C19     -7.4357   1.3197  20.2225   C.ar      1 RES1   0.0000
    30 C20     -7.0675   0.2350  21.0040   C.ar      1 RES1   0.0000
    31 C21     -5.9437  -0.4899  20.6698   C.ar      1 RES1   0.0000
    32 C22     -5.2100  -0.1500  19.5370   C.ar      1 RES1   0.0000
    33 H1       2.0000  -0.4199   6.2895   H         1 RES1   0.0000
    34 H2       3.0890  -0.0550   4.2673   H         1 RES1   0.0000
    35 H3       4.8055   1.6597   3.9759   H         1 RES1   0.0000
    36 H4       5.3030   3.0444   5.8097   H         1 RES1   0.0000
    37 H5       4.1029   2.9094   7.9690   H         1 RES1   0.0000
    38 H6       2.7368   1.1548   9.3058   H         1 RES1   0.0000
    39 H7       1.6648   2.2196   8.6888   H         1 RES1   0.0000
    40 H8      -0.4640  -1.4647   8.5688   H         1 RES1   0.0000
    41 H9      -0.5996  -1.8746  11.1052   H         1 RES1   0.0000
    42 H10     -1.8094  -2.0896  10.2826   H         1 RES1   0.0000
    43 H11     -2.1187  -1.2398  12.8875   H         1 RES1   0.0000
    44 H12     -3.3539   1.2498  13.1275   H         1 RES1   0.0000
    45 H13     -4.5606   0.4099  12.2877   H         1 RES1   0.0000
    46 H14     -4.3608   1.6597  14.8241   H         1 RES1   0.0000
    47 H15     -5.0303  -0.6249  16.8635   H         1 RES1   0.0000
    48 H16     -8.6914   2.4595  14.8584   H         1 RES1   0.0000
    49 H17     -8.9309   0.8448  14.8070   H         1 RES1   0.0000
    50 H18     -8.9729   1.6347  16.2465   H         1 RES1   0.0000
    51 H19     -5.1034   2.2845  17.1377   H         1 RES1   0.0000
    52 H20     -3.7723   1.0348  17.4119   H         1 RES1   0.0000
    53 H21     -7.0298   2.2845  18.2688   H         1 RES1   0.0000
    54 H22     -8.1019   1.8746  20.5481   H         1 RES1   0.0000
    55 H23     -7.4294  -0.6549  22.5875   H         1 RES1   0.0000
    56 H24     -5.4969  -1.2497  21.4221   H         1 RES1   0.0000
    57 H25     -4.3875  -0.8398  19.1428   H         1 RES1   0.0000
@<TRIPOS>BOND
     1     1    17    1
     2     2    18    2
     3     3    20    2
     4     4    22    2
     5     5    24    2
     6     6    24    1
     7     7    30    1
     8     8    18   am
     9     9    20   am
    10    10    22   am
    11    11    12   ar
    12    12    13   ar
    13    13    14   ar
    14    14    15   ar
    15    15    16   ar
    16    16    11   ar
    17    17    11    1
    18    18     1    1
    19    19     8    1
    20    20    19    1
    21    21     9    1
    22    22    21    1
    23    23    10    1
    24    24    23    1
    25    25     6    1
    26    26    23    1
    27    27    26    1
    28    28    27   ar
    29    29    28   ar
    30    30    29   ar
    31    31    30   ar
    32    32    27   ar
    33    33    12    1
    34    34    13    1
    35    35    14    1
    36    36    15    1
    37    37    16    1
    38    38    17    1
    39    39    17    1
    40    40     8    1
    41    41    19    1
    42    42    19    1
    43    43     9    1
    44    44    21    1
    45    45    21    1
    46    46    10    1
    47    47    23    1
    48    48    25    1
    49    49    25    1
    50    50    25    1
    51    51    26    1
    52    52    26    1
    53    53    28    1
    54    54    29    1
    55    55     7    1
    56    56    31    1
    57    57    32    1
    58    31    32   ar
@<TRIPOS>SUBSTRUCTURE
     1 RES1        1 GROUP             0 ****  ****    0  
@<TRIPOS>CRYSIN
   12.4270    4.9990   17.4010   90.0000   99.9800   90.0000     4     1
