@<TRIPOS>MOLECULE
02
    12    12     1     0     0
SMALL
NO_CHARGES
****
Generated from the CSD

@<TRIPOS>ATOM
     1 O6       8.9260   5.8551  21.8546   O.2       1 RES2   0.0000
     2 O7       9.5988   3.8054  22.2137   O.3       1 RES2   0.0000
     3 C14      8.5993   3.0813  19.6787   C.2       1 RES2   0.0000
     4 C17      8.9349   4.7091  21.4742   C.2       1 RES2   0.0000
     5 C20      9.4749   2.1300  20.4164   C.3       1 RES2   0.0000
     6 C23      9.4048   2.4165  21.8864   C.3       1 RES2   0.0000
     7 C24      8.3342   4.2607  20.2200   C.2       1 RES2   0.0000
     8 H18     10.6187   2.4036  20.2253   H         1 RES2   0.0000
     9 H19      9.3373   1.0630  20.1369   H         1 RES2   0.0000
    10 H22      8.5545   2.1354  22.2084   H         1 RES2   0.0000
    11 H25      7.7244   4.8398  19.7777   H         1 RES2   0.0000
    12 H26     10.0872   1.9136  22.3163   H         1 RES2   0.0000
@<TRIPOS>BOND
     1     1     4    2
     2     2     4    1
     3     3     5    1
     4     4     7    1
     5     5     6    1
     6     6     2    1
     7     7     3    2
     8     8     5    1
     9     9     5    1
    10    10     6    1
    11    11     7    1
    12    12     6    1
@<TRIPOS>SUBSTRUCTURE
     1 RES2        1 GROUP             0 ****  ****    0  
