@<TRIPOS>MOLECULE
01
    33    34     1     0     0
SMALL
NO_CHARGES
****
Generated from the CSD

@<TRIPOS>ATOM
     1 O2       3.4034   1.2208  15.7921   O.2       1 RES1   0.0000
     2 O3      -2.1648   1.1780  13.2076   O.2       1 RES1   0.0000
     3 O4       1.3297   1.2902  16.3476   O.2       1 RES1   0.0000
     4 O5      -1.7435   1.1807  11.0830   O.2       1 RES1   0.0000
     5 N1       2.2135   1.2535  15.4967   N.pl3     1 RES1   0.0000
     6 N2       4.1230   1.2508  13.2677   N.pl3     1 RES1   0.0000
     7 N3       4.9366   1.3882  12.1515   N.2       1 RES1   0.0000
     8 N4      -1.3749   1.1841  12.2523   N.pl3     1 RES1   0.0000
     9 C1       2.7895   1.2358  13.0643   C.ar      1 RES1   0.0000
    10 C2       1.8232   1.2372  14.1062   C.ar      1 RES1   0.0000
    11 C3       0.4642   1.2242  13.8427   C.ar      1 RES1   0.0000
    12 C4       2.2856   1.2310  11.7410   C.ar      1 RES1   0.0000
    13 C5       6.2019   1.3692  12.2930   C.2       1 RES1   0.0000
    14 C6       0.0406   1.2065  12.5424   C.ar      1 RES1   0.0000
    15 C7       0.9533   1.2004  11.4863   C.ar      1 RES1   0.0000
    16 C8       7.5099   0.2062  10.4974   C.ar      1 RES1   0.0000
    17 C9       6.6135  -0.6853   9.9331   C.ar      1 RES1   0.0000
    18 C10      7.0074   1.5332  11.0087   C.3       1 RES1   0.0000
    19 C15      7.0183  -1.9075   9.4749   C.ar      1 RES1   0.0000
    20 C16      9.2717  -1.4114  10.1206   C.ar      1 RES1   0.0000
    21 C18      8.8478  -0.1715  10.6053   C.ar      1 RES1   0.0000
    22 C22      8.3305  -2.2600   9.5651   C.ar      1 RES1   0.0000
    23 H1       4.4716   1.2739  14.0726   H         1 RES1   0.0000
    24 H2      -0.2822   1.2515  14.6369   H         1 RES1   0.0000
    25 H3       2.9868   1.0929  11.0228   H         1 RES1   0.0000
    26 H4       0.5082   1.1977  10.5116   H         1 RES1   0.0000
    27 H5       5.5092  -0.3151   9.6023   H         1 RES1   0.0000
    28 H6       7.9066   2.1416  11.2316   H         1 RES1   0.0000
    29 H7       6.2218   1.9646  10.3470   H         1 RES1   0.0000
    30 H14      6.3003  -2.4519   8.8168   H         1 RES1   0.0000
    31 H15     10.3844  -1.6584  10.1701   H         1 RES1   0.0000
    32 H16      9.5832   0.6165  10.9804   H         1 RES1   0.0000
    33 H23      8.6035  -3.1099   9.2379   H         1 RES1   0.0000
@<TRIPOS>BOND
     1     1     5    2
     2     2     8    2
     3     3     5    2
     4     4     8    2
     5     5    10    1
     6     6     7    1
     7     7    13    2
     8     8    14    1
     9     9     6    1
    10    10     9   ar
    11    11    10   ar
    12    12     9   ar
    13    13    18    1
    14    14    11   ar
    15    15    12   ar
    16    16    17   ar
    17    17    19   ar
    18    18    16    1
    19    19    22   ar
    20    20    21   ar
    21    21    16   ar
    22    22    20   ar
    23    23     6    1
    24    24    11    1
    25    25    12    1
    26    26    15    1
    27    27    17    1
    28    28    18    1
    29    29    18    1
    30    30    19    1
    31    31    20    1
    32    32    21    1
    33    33    22    1
    34    14    15   ar
@<TRIPOS>SUBSTRUCTURE
     1 RES1        1 GROUP             0 ****  ****    0  
