@<TRIPOS>MOLECULE
01
    34    37     1     0     0
SMALL
NO_CHARGES
****
Generated from the CSD

@<TRIPOS>ATOM
     1 N1       5.7964  11.2818   5.3643   N.ar      1 RES1   0.0000
     2 C1       5.5979  12.5870   5.4067   C.ar      1 RES1   0.0000
     3 C2       4.9671  13.2879   6.4454   C.ar      1 RES1   0.0000
     4 C3       4.5090  12.5629   7.5126   C.ar      1 RES1   0.0000
     5 C4       4.6961  11.1584   7.5489   C.ar      1 RES1   0.0000
     6 C5       4.2351  10.3608   8.6389   C.ar      1 RES1   0.0000
     7 C6       4.3799   8.9868   8.5898   C.ar      1 RES1   0.0000
     8 C7       5.0533   8.3880   7.5020   C.ar      1 RES1   0.0000
     9 C8       5.5172   9.1585   6.4659   C.ar      1 RES1   0.0000
    10 C9       5.3447  10.5629   6.4406   C.ar      1 RES1   0.0000
    11 O1       3.8487  13.2314   8.5305   O.3       1 RES1   0.0000
    12 C10      3.4579  12.4429   9.5754   C.2       1 RES1   0.0000
    13 C11      2.7692  13.0004  10.7366   C.2       1 RES1   0.0000
    14 O2       2.5248  11.9666  11.5796   O.3       1 RES1   0.0000
    15 C12      3.0796  10.7190  11.0366   C.3       1 RES1   0.0000
    16 C13      3.6138  11.1219   9.6974   C.2       1 RES1   0.0000
    17 O3       3.8412   8.2978   9.6408   O.3       1 RES1   0.0000
    18 C14      3.6349   6.8872   9.5344   C.3       1 RES1   0.0000
    19 O4       4.7717   6.1619   9.8666   O.3       1 RES1   0.0000
    20 C15      5.0535   6.1437  11.2814   C.3       1 RES1   0.0000
    21 C16      4.1166   5.2477  12.0635   C.3       1 RES1   0.0000
    22 O5       2.4470  14.1394  10.9762   O.2       1 RES1   0.0000
    23 H1       5.2106   7.4231   7.4713   H         1 RES1   0.0000
    24 H2       5.9729   8.7405   5.7474   H         1 RES1   0.0000
    25 H8       5.9166  13.0948   4.6399   H         1 RES1   0.0000
    26 H9       4.8614  14.2537   6.4076   H         1 RES1   0.0000
    27 H10      2.3192  10.0891  10.9989   H         1 RES1   0.0000
    28 H17      5.9727   5.8133  11.3180   H         1 RES1   0.0000
    29 H18      5.0380   7.0705  11.6184   H         1 RES1   0.0000
    30 H19      4.1271   4.3443  11.7091   H         1 RES1   0.0000
    31 H20      4.3917   5.2182  12.9747   H         1 RES1   0.0000
    32 H21      3.1869   5.5678  12.0283   H         1 RES1   0.0000
    33 H22      2.8989   6.7150  10.1683   H         1 RES1   0.0000
    34 H23      3.4031   6.6703   8.5742   H         1 RES1   0.0000
@<TRIPOS>BOND
     1     1     2   ar
     2     2     3   ar
     3     3     4   ar
     4     4     5   ar
     5     5     6   ar
     6     6     7   ar
     7     7     8   ar
     8     8     9   ar
     9     9    10   ar
    10    10     1   ar
    11    11     4    1
    12    12    11    1
    13    13    12    1
    14    14    13    1
    15    15    14    1
    16    16     6    1
    17    17     7    1
    18    18    17    1
    19    19    18    1
    20    20    19    1
    21    21    20    1
    22    22    13    2
    23    23     8    1
    24    24     9    1
    25    25     2    1
    26    26     3    1
    27    27    15    1
    28    28    20    1
    29    29    20    1
    30    30    21    1
    31    31    21    1
    32    32    21    1
    33    33    18    1
    34    34    18    1
    35     5    10   ar
    36    12    16    2
    37    15    16    1
@<TRIPOS>SUBSTRUCTURE
     1 RES1        1 GROUP             0 ****  ****    0  
