@<TRIPOS>MOLECULE
WIVBIO
    59    63     1     0     0
SMALL
NO_CHARGES
****
Generated from the CSD

@<TRIPOS>ATOM
     1 N1       5.7964  11.2818   5.3643   N.ar      1 RES1   0.0000
     2 C1       5.5979  12.5870   5.4067   C.ar      1 RES1   0.0000
     3 C2       4.9671  13.2879   6.4454   C.ar      1 RES1   0.0000
     4 C3       4.5090  12.5629   7.5126   C.ar      1 RES1   0.0000
     5 C4       4.6961  11.1584   7.5489   C.ar      1 RES1   0.0000
     6 C5       4.2351  10.3608   8.6389   C.ar      1 RES1   0.0000
     7 C6       4.3799   8.9868   8.5898   C.ar      1 RES1   0.0000
     8 C7       5.0533   8.3880   7.5020   C.ar      1 RES1   0.0000
     9 C8       5.5172   9.1585   6.4659   C.ar      1 RES1   0.0000
    10 C9       5.3447  10.5629   6.4406   C.ar      1 RES1   0.0000
    11 O1       3.8487  13.2314   8.5305   O.3       1 RES1   0.0000
    12 C10      3.4579  12.4429   9.5754   C.2       1 RES1   0.0000
    13 C11      2.7692  13.0004  10.7366   C.2       1 RES1   0.0000
    14 O2       2.5248  11.9666  11.5796   O.3       1 RES1   0.0000
    15 C12      3.0796  10.7190  11.0366   C.3       1 RES1   0.0000
    16 C13      3.6138  11.1219   9.6974   C.2       1 RES1   0.0000
    17 O3       3.8412   8.2978   9.6408   O.3       1 RES1   0.0000
    18 C14      3.6349   6.8872   9.5344   C.3       1 RES1   0.0000
    19 O4       4.7717   6.1619   9.8666   O.3       1 RES1   0.0000
    20 C15      5.0535   6.1437  11.2814   C.3       1 RES1   0.0000
    21 C16      4.1166   5.2477  12.0635   C.3       1 RES1   0.0000
    22 O5       2.4470  14.1394  10.9762   O.2       1 RES1   0.0000
    23 C17      4.1458  10.2047  12.0014   C.3       1 RES1   0.0000
    24 C18      3.5490   9.5753  13.2408   C.3       1 RES1   0.0000
    25 O6       2.7088   8.5032  12.8086   O.3       1 RES1   0.0000
    26 C19      2.0889   7.8184  13.8715   C.3       1 RES1   0.0000
    27 O7       1.2729   8.6542  14.6595   O.3       1 RES1   0.0000
    28 C20      0.1892   9.2107  13.9208   C.3       1 RES1   0.0000
    29 C21     -0.7069   9.9891  14.8471   C.ar      1 RES1   0.0000
    30 C22     -1.2650  11.1871  14.4150   C.ar      1 RES1   0.0000
    31 H1       5.2106   7.4231   7.4713   H         1 RES1   0.0000
    32 H2       5.9729   8.7405   5.7474   H         1 RES1   0.0000
    33 H3      -1.0191  11.5015  13.5347   H         1 RES1   0.0000
    34 H4      -2.5643  12.7270  14.9082   H         1 RES1   0.0000
    35 H5      -3.0771  11.8856  17.0436   H         1 RES1   0.0000
    36 H6      -2.1031   9.8741  17.8132   H         1 RES1   0.0000
    37 H7      -0.6096   8.6624  16.4413   H         1 RES1   0.0000
    38 H8       5.9166  13.0948   4.6399   H         1 RES1   0.0000
    39 H9       4.8614  14.2537   6.4076   H         1 RES1   0.0000
    40 H10      2.3192  10.0891  10.9989   H         1 RES1   0.0000
    41 H11      4.6911   9.5244  11.5120   H         1 RES1   0.0000
    42 H12      4.7196  10.9559  12.2520   H         1 RES1   0.0000
    43 H13      0.5186   9.8019  13.2031   H         1 RES1   0.0000
    44 H14     -0.3262   8.4714  13.4456   H         1 RES1   0.0000
    45 H15      3.0115  10.2106  13.7522   H         1 RES1   0.0000
    46 H16      4.2548   9.2232  13.8507   H         1 RES1   0.0000
    47 H17      5.9727   5.8133  11.3180   H         1 RES1   0.0000
    48 H18      5.0380   7.0705  11.6184   H         1 RES1   0.0000
    49 H19      4.1271   4.3443  11.7091   H         1 RES1   0.0000
    50 H20      4.3917   5.2182  12.9747   H         1 RES1   0.0000
    51 H21      3.1869   5.5678  12.0283   H         1 RES1   0.0000
    52 H22      2.8989   6.7150  10.1683   H         1 RES1   0.0000
    53 H23      3.4031   6.6703   8.5742   H         1 RES1   0.0000
    54 H24      1.5529   7.1166  13.4299   H         1 RES1   0.0000
    55 H25      2.7501   7.4169  14.5124   H         1 RES1   0.0000
    56 C23     -2.1550  11.8859  15.2175   C.ar      1 RES1   0.0000
    57 C24     -2.4742  11.3991  16.4769   C.ar      1 RES1   0.0000
    58 C25     -1.8938  10.2237  16.9272   C.ar      1 RES1   0.0000
    59 C26     -1.0248   9.5166  16.1156   C.ar      1 RES1   0.0000
@<TRIPOS>BOND
     1     1     2   ar
     2     2     3   ar
     3     3     4   ar
     4     4     5   ar
     5     5     6   ar
     6     6     7   ar
     7     7     8   ar
     8     8     9   ar
     9     9    10   ar
    10    10     1   ar
    11    11     4    1
    12    12    11    1
    13    13    12    1
    14    14    13    1
    15    15    14    1
    16    16     6    1
    17    17     7    1
    18    18    17    1
    19    19    18    1
    20    20    19    1
    21    21    20    1
    22    22    13    2
    23    23    15    1
    24    24    23    1
    25    25    24    1
    26    26    25    1
    27    27    26    1
    28    28    27    1
    29    29    28    1
    30    30    29   ar
    31    31     8    1
    32    32     9    1
    33    33    30    1
    34    34    56    1
    35    35    57    1
    36    36    58    1
    37    37    59    1
    38    38     2    1
    39    39     3    1
    40    40    15    1
    41    41    23    1
    42    42    23    1
    43    43    28    1
    44    44    28    1
    45    45    24    1
    46    46    24    1
    47    47    20    1
    48    48    20    1
    49    49    21    1
    50    50    21    1
    51    51    21    1
    52    52    18    1
    53    53    18    1
    54    54    26    1
    55    55    26    1
    56    56    30   ar
    57    57    56   ar
    58    58    57   ar
    59    59    29   ar
    60     5    10   ar
    61    12    16    2
    62    15    16    1
    63    58    59   ar
@<TRIPOS>SUBSTRUCTURE
     1 RES1        1 GROUP             0 ****  ****    0  
@<TRIPOS>CRYSIN
    7.8031    9.1491   16.0757   77.2590   83.7560   78.5850     2     1
