@<TRIPOS>MOLECULE
02
    14    14     1     0     0
SMALL
NO_CHARGES
****
Generated from the CSD

@<TRIPOS>ATOM
     1 C20      0.1892   9.2107  13.9208   C.3       1 RES2   0.0000
     2 C21     -0.7069   9.9891  14.8471   C.ar      1 RES2   0.0000
     3 C22     -1.2650  11.1871  14.4150   C.ar      1 RES2   0.0000
     4 H3      -1.0191  11.5015  13.5347   H         1 RES2   0.0000
     5 H4      -2.5643  12.7270  14.9082   H         1 RES2   0.0000
     6 H5      -3.0771  11.8856  17.0436   H         1 RES2   0.0000
     7 H6      -2.1031   9.8741  17.8132   H         1 RES2   0.0000
     8 H7      -0.6096   8.6624  16.4413   H         1 RES2   0.0000
     9 H13      0.5186   9.8019  13.2031   H         1 RES2   0.0000
    10 H14     -0.3262   8.4714  13.4456   H         1 RES2   0.0000
    11 C23     -2.1550  11.8859  15.2175   C.ar      1 RES2   0.0000
    12 C24     -2.4742  11.3991  16.4769   C.ar      1 RES2   0.0000
    13 C25     -1.8938  10.2237  16.9272   C.ar      1 RES2   0.0000
    14 C26     -1.0248   9.5166  16.1156   C.ar      1 RES2   0.0000
@<TRIPOS>BOND
     1     2     1    1
     2     3     2   ar
     3     4     3    1
     4     5    11    1
     5     6    12    1
     6     7    13    1
     7     8    14    1
     8     9     1    1
     9    10     1    1
    10    11     3   ar
    11    12    11   ar
    12    13    12   ar
    13    14     2   ar
    14    13    14   ar
@<TRIPOS>SUBSTRUCTURE
     1 RES2        1 GROUP             0 ****  ****    0  
