@<TRIPOS>MOLECULE
XIBXEM
    56    59     1     0     0
SMALL
NO_CHARGES
****
Generated from the CSD

@<TRIPOS>ATOM
     1 N1      -3.9114   2.2981   9.2359   N.ar      1 RES1   0.0000
     2 C1      -4.5253   2.8179   8.1722   C.ar      1 RES1   0.0000
     3 C2      -3.9824   2.8128   6.8865   C.ar      1 RES1   0.0000
     4 H1      -4.4453   3.1832   6.1699   H         1 RES1   0.0000
     5 C3      -2.7363   2.2415   6.7103   C.ar      1 RES1   0.0000
     6 C4      -2.1010   1.6591   7.7945   C.ar      1 RES1   0.0000
     7 H2      -1.2789   1.2370   7.6928   H         1 RES1   0.0000
     8 C5      -2.7152   1.7184   9.0342   C.ar      1 RES1   0.0000
     9 C6      -5.8410   3.4739   8.4022   C.ar      1 RES1   0.0000
    10 N2      -6.5859   3.7203   7.3179   N.ar      1 RES1   0.0000
    11 C7      -7.7471   4.3513   7.5071   C.ar      1 RES1   0.0000
    12 H3      -8.2764   4.5179   6.7607   H         1 RES1   0.0000
    13 C8      -8.2104   4.7704   8.7277   C.ar      1 RES1   0.0000
    14 H4      -9.0220   5.2200   8.8034   H         1 RES1   0.0000
    15 C9      -7.4437   4.5077   9.8350   C.ar      1 RES1   0.0000
    16 H5      -7.7272   4.7767  10.6781   H         1 RES1   0.0000
    17 C10     -6.2460   3.8396   9.6793   C.ar      1 RES1   0.0000
    18 H6      -5.7186   3.6374  10.4182   H         1 RES1   0.0000
    19 C11     -2.0441   1.1433  10.2327   C.ar      1 RES1   0.0000
    20 N3      -0.8820   0.5066  10.0265   N.ar      1 RES1   0.0000
    21 C12     -0.2968  -0.0493  11.0943   C.ar      1 RES1   0.0000
    22 H7       0.4981  -0.5129  10.9640   H         1 RES1   0.0000
    23 C13     -0.8010   0.0242  12.3737   C.ar      1 RES1   0.0000
    24 H8      -0.3560  -0.3800  13.0830   H         1 RES1   0.0000
    25 C14     -1.9709   0.7045  12.5795   C.ar      1 RES1   0.0000
    26 H9      -2.3247   0.7858  13.4347   H         1 RES1   0.0000
    27 C15     -2.6183   1.2693  11.4925   C.ar      1 RES1   0.0000
    28 H10     -3.4220   1.7241  11.6034   H         1 RES1   0.0000
    29 O1      -2.0562   2.2270   5.5293   O.3       1 RES1   0.0000
    30 C16     -2.6814   2.8571   4.4043   C.3       1 RES1   0.0000
    31 H11     -2.9443   3.7633   4.6296   H         1 RES1   0.0000
    32 H12     -3.4730   2.3629   4.1392   H         1 RES1   0.0000
    33 C17     -1.6713   2.8695   3.2804   C.3       1 RES1   0.0000
    34 H13     -1.3449   1.9657   3.1430   H         1 RES1   0.0000
    35 H14     -2.1157   3.1480   2.4638   H         1 RES1   0.0000
    36 C18     -0.4972   3.7745   3.5243   C.3       1 RES1   0.0000
    37 H15     -0.0884   3.5671   4.3783   H         1 RES1   0.0000
    38 H16      0.1669   3.6523   2.8294   H         1 RES1   0.0000
    39 O2      -0.9807   5.1534   3.5207   O.3       1 RES1   0.0000
    40 S1       0.0587   6.2936   3.2047   S.o2      1 RES1   0.0000
    41 O3      -0.7422   7.4519   3.0511   O.2       1 RES1   0.0000
    42 O4       0.9056   5.8613   2.1484   O.2       1 RES1   0.0000
    43 C19      1.0115   6.4359   4.6699   C.ar      1 RES1   0.0000
    44 C20      0.5305   7.1998   5.7241   C.ar      1 RES1   0.0000
    45 H17     -0.2846   7.6424   5.6518   H         1 RES1   0.0000
    46 C21      1.2709   7.2944   6.8724   C.ar      1 RES1   0.0000
    47 H18      0.9524   7.8121   7.5767   H         1 RES1   0.0000
    48 C22      2.4848   6.6361   7.0088   C.ar      1 RES1   0.0000
    49 C23      2.9430   5.8714   5.9408   C.ar      1 RES1   0.0000
    50 H19      3.7544   5.4241   6.0157   H         1 RES1   0.0000
    51 C24      2.2164   5.7662   4.7751   C.ar      1 RES1   0.0000
    52 H20      2.5319   5.2513   4.0682   H         1 RES1   0.0000
    53 C25      3.2806   6.7315   8.2800   C.3       1 RES1   0.0000
    54 H21      3.5714   7.6369   8.4084   H         1 RES1   0.0000
    55 H22      4.0461   6.1544   8.2230   H         1 RES1   0.0000
    56 H23      2.7333   6.4625   9.0217   H         1 RES1   0.0000
@<TRIPOS>BOND
     1     1     2   ar
     2     2     3   ar
     3     3     4    1
     4     5     3   ar
     5     6     5   ar
     6     7     6    1
     7     8     1   ar
     8     9     2    1
     9    10     9   ar
    10    11    10   ar
    11    12    11    1
    12    13    11   ar
    13    14    13    1
    14    15    13   ar
    15    16    15    1
    16    17     9   ar
    17    18    17    1
    18    19     8    1
    19    20    19   ar
    20    21    20   ar
    21    22    21    1
    22    23    21   ar
    23    24    23    1
    24    25    23   ar
    25    26    25    1
    26    27    19   ar
    27    28    27    1
    28    29     5    1
    29    30    29    1
    30    31    30    1
    31    32    30    1
    32    33    30    1
    33    34    33    1
    34    35    33    1
    35    36    33    1
    36    37    36    1
    37    38    36    1
    38    39    36    1
    39    40    39    1
    40    41    40    2
    41    42    40    2
    42    43    40    1
    43    44    43   ar
    44    45    44    1
    45    46    44   ar
    46    47    46    1
    47    48    46   ar
    48    49    48   ar
    49    50    49    1
    50    51    43   ar
    51    52    51    1
    52    53    48    1
    53    54    53    1
    54    55    53    1
    55    56    53    1
    56     6     8   ar
    57    15    17   ar
    58    25    27   ar
    59    49    51   ar
@<TRIPOS>SUBSTRUCTURE
     1 RES1        1 GROUP             0 ****  ****    0  
@<TRIPOS>CRYSIN
   16.7370    7.8191   18.3486   90.0000  109.2170   90.0000   231     1
