@<TRIPOS>MOLECULE
02
    17    17     1     0     0
SMALL
NO_CHARGES
****
Generated from the CSD

@<TRIPOS>ATOM
     1 S1       0.0587   6.2936   3.2047   S.o       1 RES2   0.0000
     2 O3      -0.7422   7.4519   3.0511   O.2       1 RES2   0.0000
     3 O4       0.9056   5.8613   2.1484   O.2       1 RES2   0.0000
     4 C19      1.0115   6.4359   4.6699   C.ar      1 RES2   0.0000
     5 C20      0.5305   7.1998   5.7241   C.ar      1 RES2   0.0000
     6 H17     -0.2846   7.6424   5.6518   H         1 RES2   0.0000
     7 C21      1.2709   7.2944   6.8724   C.ar      1 RES2   0.0000
     8 H18      0.9524   7.8121   7.5767   H         1 RES2   0.0000
     9 C22      2.4848   6.6361   7.0088   C.ar      1 RES2   0.0000
    10 C23      2.9430   5.8714   5.9408   C.ar      1 RES2   0.0000
    11 H19      3.7544   5.4241   6.0157   H         1 RES2   0.0000
    12 C24      2.2164   5.7662   4.7751   C.ar      1 RES2   0.0000
    13 H20      2.5319   5.2513   4.0682   H         1 RES2   0.0000
    14 C25      3.2806   6.7315   8.2800   C.3       1 RES2   0.0000
    15 H21      3.5714   7.6369   8.4084   H         1 RES2   0.0000
    16 H22      4.0461   6.1544   8.2230   H         1 RES2   0.0000
    17 H23      2.7333   6.4625   9.0217   H         1 RES2   0.0000
@<TRIPOS>BOND
     1     2     1    2
     2     3     1    2
     3     4     1    1
     4     5     4   ar
     5     6     5    1
     6     7     5   ar
     7     8     7    1
     8     9     7   ar
     9    10     9   ar
    10    11    10    1
    11    12     4   ar
    12    13    12    1
    13    14     9    1
    14    15    14    1
    15    16    14    1
    16    17    14    1
    17    10    12   ar
@<TRIPOS>SUBSTRUCTURE
     1 RES2        1 GROUP             0 ****  ****    0  
