@<TRIPOS>MOLECULE
01
    28    30     1     0     0
SMALL
NO_CHARGES
****
Generated from the CSD

@<TRIPOS>ATOM
     1 N1      -3.9114   2.2981   9.2359   N.ar      1 RES1   0.0000
     2 C1      -4.5253   2.8179   8.1722   C.ar      1 RES1   0.0000
     3 C2      -3.9824   2.8128   6.8865   C.ar      1 RES1   0.0000
     4 H1      -4.4453   3.1832   6.1699   H         1 RES1   0.0000
     5 C3      -2.7363   2.2415   6.7103   C.ar      1 RES1   0.0000
     6 C4      -2.1010   1.6591   7.7945   C.ar      1 RES1   0.0000
     7 H2      -1.2789   1.2370   7.6928   H         1 RES1   0.0000
     8 C5      -2.7152   1.7184   9.0342   C.ar      1 RES1   0.0000
     9 C6      -5.8410   3.4739   8.4022   C.ar      1 RES1   0.0000
    10 N2      -6.5859   3.7203   7.3179   N.ar      1 RES1   0.0000
    11 C7      -7.7471   4.3513   7.5071   C.ar      1 RES1   0.0000
    12 H3      -8.2764   4.5179   6.7607   H         1 RES1   0.0000
    13 C8      -8.2104   4.7704   8.7277   C.ar      1 RES1   0.0000
    14 H4      -9.0220   5.2200   8.8034   H         1 RES1   0.0000
    15 C9      -7.4437   4.5077   9.8350   C.ar      1 RES1   0.0000
    16 H5      -7.7272   4.7767  10.6781   H         1 RES1   0.0000
    17 C10     -6.2460   3.8396   9.6793   C.ar      1 RES1   0.0000
    18 H6      -5.7186   3.6374  10.4182   H         1 RES1   0.0000
    19 C11     -2.0441   1.1433  10.2327   C.ar      1 RES1   0.0000
    20 N3      -0.8820   0.5066  10.0265   N.ar      1 RES1   0.0000
    21 C12     -0.2968  -0.0493  11.0943   C.ar      1 RES1   0.0000
    22 H7       0.4981  -0.5129  10.9640   H         1 RES1   0.0000
    23 C13     -0.8010   0.0242  12.3737   C.ar      1 RES1   0.0000
    24 H8      -0.3560  -0.3800  13.0830   H         1 RES1   0.0000
    25 C14     -1.9709   0.7045  12.5795   C.ar      1 RES1   0.0000
    26 H9      -2.3247   0.7858  13.4347   H         1 RES1   0.0000
    27 C15     -2.6183   1.2693  11.4925   C.ar      1 RES1   0.0000
    28 H10     -3.4220   1.7241  11.6034   H         1 RES1   0.0000
@<TRIPOS>BOND
     1     1     2   ar
     2     2     3   ar
     3     3     4    1
     4     5     3   ar
     5     6     5   ar
     6     7     6    1
     7     8     1   ar
     8     9     2    1
     9    10     9   ar
    10    11    10   ar
    11    12    11    1
    12    13    11   ar
    13    14    13    1
    14    15    13   ar
    15    16    15    1
    16    17     9   ar
    17    18    17    1
    18    19     8    1
    19    20    19   ar
    20    21    20   ar
    21    22    21    1
    22    23    21   ar
    23    24    23    1
    24    25    23   ar
    25    26    25    1
    26    27    19   ar
    27    28    27    1
    28     6     8   ar
    29    15    17   ar
    30    25    27   ar
@<TRIPOS>SUBSTRUCTURE
     1 RES1        1 GROUP             0 ****  ****    0  
