@<TRIPOS>MOLECULE
02
    28    29     1     0     0
SMALL
NO_CHARGES
****
Generated from the CSD

@<TRIPOS>ATOM
     1 C16      5.8328   5.8780   3.8288   C.3       1 RES2   0.0000
     2 H16      6.7722   6.0769   3.8314   H         1 RES2   0.0000
     3 H17      5.5098   5.8694   2.9247   H         1 RES2   0.0000
     4 H18      5.6859   5.0179   4.2303   H         1 RES2   0.0000
     5 C17      5.1453   6.8600   4.5623   C.3       1 RES2   0.0000
     6 H19      5.3370   6.7103   5.5017   H         1 RES2   0.0000
     7 H20      4.1956   6.7044   4.4389   H         1 RES2   0.0000
     8 C18      5.4072   8.3210   4.2736   C.3       1 RES2   0.0000
     9 H21      6.2811   8.5533   4.6239   H         1 RES2   0.0000
    10 H22      5.4341   8.4455   3.3118   H         1 RES2   0.0000
    11 C19      4.4133   9.2442   4.8404   C.3       1 RES2   0.0000
    12 H23      3.5381   8.9980   4.5019   H         1 RES2   0.0000
    13 H24      4.3973   9.1242   5.8022   H         1 RES2   0.0000
    14 C20      5.1075  11.6245   5.4663   C.ar      1 RES2   0.0000
    15 C21      5.5214  11.4505   6.7771   C.ar      1 RES2   0.0000
    16 H25      5.5397  10.6081   7.1681   H         1 RES2   0.0000
    17 C22      5.9063  12.5776   7.4830   C.ar      1 RES2   0.0000
    18 H26      6.2070  12.5040   8.3595   H         1 RES2   0.0000
    19 C23      5.8395  13.7951   6.8808   C.ar      1 RES2   0.0000
    20 C24      5.4286  13.9980   5.5857   C.ar      1 RES2   0.0000
    21 H27      5.3908  14.8491   5.2144   H         1 RES2   0.0000
    22 C25      5.0726  12.8711   4.8601   C.ar      1 RES2   0.0000
    23 C26      4.5707  12.7141   3.4548   C.3       1 RES2   0.0000
    24 H28      3.7342  13.2152   3.3551   H         1 RES2   0.0000
    25 C27      4.2700  11.2313   3.3905   C.2       1 RES2   0.0000
    26 F1       6.1800  14.9022   7.6093   F         1 RES2   0.0000
    27 N3       4.6293  10.6524   4.5596   N.am      1 RES2   0.0000
    28 O6       3.7841  10.6341   2.4324   O.2       1 RES2   0.0000
@<TRIPOS>BOND
     1     1     2    1
     2     3     1    1
     3     4     1    1
     4     5     1    1
     5     6     5    1
     6     7     5    1
     7     8     5    1
     8     9     8    1
     9    10     8    1
    10    11     8    1
    11    12    11    1
    12    13    11    1
    13    14    15   ar
    14    15    16    1
    15    17    15   ar
    16    18    17    1
    17    19    17   ar
    18    20    19   ar
    19    21    20    1
    20    22    14   ar
    21    23    22    1
    22    24    23    1
    23    25    23    1
    24    26    19    1
    25    27    11    1
    26    28    25    2
    27    14    27    1
    28    20    22   ar
    29    25    27   am
@<TRIPOS>SUBSTRUCTURE
     1 RES2        1 GROUP             0 ****  ****    0  
