@<TRIPOS>MOLECULE
XOPRAX
    77    80     1     0     0
SMALL
NO_CHARGES
****
Generated from the CSD

@<TRIPOS>ATOM
     1 C1      10.4642   5.1471   0.8712   C.ar      1 RES1   0.0000
     2 C2      10.9371   3.8849   1.1822   C.ar      1 RES1   0.0000
     3 H1      11.3561   3.3640   0.5353   H         1 RES1   0.0000
     4 C3      10.7771   3.4225   2.4432   C.ar      1 RES1   0.0000
     5 H2      11.1001   2.5797   2.6675   H         1 RES1   0.0000
     6 C4      10.1306   4.1961   3.4194   C.ar      1 RES1   0.0000
     7 C5       9.4224   4.3059   5.6972   C.3       1 RES1   0.0000
     8 H3       9.8636   5.1499   5.8166   H         1 RES1   0.0000
     9 H4       9.4822   3.7955   6.5081   H         1 RES1   0.0000
    10 H5       8.4998   4.4559   5.4794   H         1 RES1   0.0000
    11 C6       9.6442   5.4530   3.1320   C.ar      1 RES1   0.0000
    12 H6       9.2119   5.9590   3.7815   H         1 RES1   0.0000
    13 C7       9.8196   5.9437   1.8383   C.ar      1 RES1   0.0000
    14 C8       9.4980   7.1857   1.2111   C.2       1 RES1   0.0000
    15 C9       9.9399   7.0894  -0.0735   C.2       1 RES1   0.0000
    16 H7       9.8663   7.7611  -0.7112   H         1 RES1   0.0000
    17 C10      8.8900   8.3753   1.8895   C.3       1 RES1   0.0000
    18 H8       9.4465   8.6186   2.6452   H         1 RES1   0.0000
    19 H9       8.0200   8.1224   2.2359   H         1 RES1   0.0000
    20 C11      8.7235   9.5828   1.0077   C.3       1 RES1   0.0000
    21 H10      9.5363   9.7194   0.4947   H         1 RES1   0.0000
    22 H11      7.9993   9.4250   0.3818   H         1 RES1   0.0000
    23 C12      7.2713  11.4042   1.7942   C.2       1 RES1   0.0000
    24 H12      6.5873  11.0039   1.3069   H         1 RES1   0.0000
    25 C13      6.9426  12.5708   2.4416   C.2       1 RES1   0.0000
    26 C14      7.9682  13.2630   3.1688   C.2       1 RES1   0.0000
    27 C15      8.6016  15.2579   4.2906   C.3       1 RES1   0.0000
    28 H13      8.8624  14.7898   5.0871   H         1 RES1   0.0000
    29 H14      8.2402  16.1152   4.5255   H         1 RES1   0.0000
    30 H15      9.3683  15.3789   3.7251   H         1 RES1   0.0000
    31 C16      5.8328   5.8780   3.8288   C.3       1 RES1   0.0000
    32 H16      6.7722   6.0769   3.8314   H         1 RES1   0.0000
    33 H17      5.5098   5.8694   2.9247   H         1 RES1   0.0000
    34 H18      5.6859   5.0179   4.2303   H         1 RES1   0.0000
    35 C17      5.1453   6.8600   4.5623   C.3       1 RES1   0.0000
    36 H19      5.3370   6.7103   5.5017   H         1 RES1   0.0000
    37 H20      4.1956   6.7044   4.4389   H         1 RES1   0.0000
    38 C18      5.4072   8.3210   4.2736   C.3       1 RES1   0.0000
    39 H21      6.2811   8.5533   4.6239   H         1 RES1   0.0000
    40 H22      5.4341   8.4455   3.3118   H         1 RES1   0.0000
    41 C19      4.4133   9.2442   4.8404   C.3       1 RES1   0.0000
    42 H23      3.5381   8.9980   4.5019   H         1 RES1   0.0000
    43 H24      4.3973   9.1242   5.8022   H         1 RES1   0.0000
    44 C20      5.1075  11.6245   5.4663   C.ar      1 RES1   0.0000
    45 C21      5.5214  11.4505   6.7771   C.ar      1 RES1   0.0000
    46 H25      5.5397  10.6081   7.1681   H         1 RES1   0.0000
    47 C22      5.9063  12.5776   7.4830   C.ar      1 RES1   0.0000
    48 H26      6.2070  12.5040   8.3595   H         1 RES1   0.0000
    49 C23      5.8395  13.7951   6.8808   C.ar      1 RES1   0.0000
    50 C24      5.4286  13.9980   5.5857   C.ar      1 RES1   0.0000
    51 H27      5.3908  14.8491   5.2144   H         1 RES1   0.0000
    52 C25      5.0726  12.8711   4.8601   C.ar      1 RES1   0.0000
    53 C26      4.5707  12.7141   3.4548   C.3       1 RES1   0.0000
    54 H28      3.7342  13.2152   3.3551   H         1 RES1   0.0000
    55 C27      4.2700  11.2313   3.3905   C.2       1 RES1   0.0000
    56 C28      5.5299  13.1020   2.3054   C.3       1 RES1   0.0000
    57 H29      5.1676  12.6523   1.5142   H         1 RES1   0.0000
    58 C29      5.4293  14.5751   1.9944   C.2       1 RES1   0.0000
    59 C30      6.2030  16.3101   0.5380   C.3       1 RES1   0.0000
    60 H30      5.2899  16.6372   0.5550   H         1 RES1   0.0000
    61 H31      6.5262  16.3693  -0.3753   H         1 RES1   0.0000
    62 C31      7.0554  17.1637   1.4250   C.3       1 RES1   0.0000
    63 H32      6.6870  17.1718   2.3106   H         1 RES1   0.0000
    64 H33      7.0788  18.0603   1.0799   H         1 RES1   0.0000
    65 H34      7.9463  16.8085   1.4512   H         1 RES1   0.0000
    66 F1       6.1800  14.9022   7.6093   F         1 RES1   0.0000
    67 N1      10.5088   5.8597  -0.2913   N.pl3     1 RES1   0.0000
    68 H35     10.8377   5.5850  -1.0366   H         1 RES1   0.0000
    69 N2       8.4382  10.7777   1.7753   N.pl3     1 RES1   0.0000
    70 H36      9.0733  11.1040   2.2542   H         1 RES1   0.0000
    71 N3       4.6293  10.6524   4.5596   N.am      1 RES1   0.0000
    72 O1      10.0396   3.6001   4.6541   O.3       1 RES1   0.0000
    73 O2       9.0926  12.8372   3.3867   O.2       1 RES1   0.0000
    74 O3       7.6013  14.4908   3.5877   O.3       1 RES1   0.0000
    75 O4       4.6758  15.3390   2.5416   O.2       1 RES1   0.0000
    76 O5       6.2283  14.9125   0.9733   O.3       1 RES1   0.0000
    77 O6       3.7841  10.6341   2.4324   O.2       1 RES1   0.0000
@<TRIPOS>BOND
     1     1     2   ar
     2     2     3    1
     3     4     2   ar
     4     5     4    1
     5     6     4   ar
     6     7     8    1
     7     9     7    1
     8    10     7    1
     9    11     6   ar
    10    12    11    1
    11    13     1   ar
    12    14    13    1
    13    15    14    2
    14    16    15    1
    15    17    14    1
    16    18    17    1
    17    19    17    1
    18    20    17    1
    19    21    20    1
    20    22    20    1
    21    23    24    1
    22    25    23    2
    23    26    25    1
    24    27    28    1
    25    29    27    1
    26    30    27    1
    27    31    32    1
    28    33    31    1
    29    34    31    1
    30    35    31    1
    31    36    35    1
    32    37    35    1
    33    38    35    1
    34    39    38    1
    35    40    38    1
    36    41    38    1
    37    42    41    1
    38    43    41    1
    39    44    45   ar
    40    45    46    1
    41    47    45   ar
    42    48    47    1
    43    49    47   ar
    44    50    49   ar
    45    51    50    1
    46    52    44   ar
    47    53    52    1
    48    54    53    1
    49    55    53    1
    50    56    25    1
    51    57    56    1
    52    58    56    1
    53    59    60    1
    54    61    59    1
    55    62    59    1
    56    63    62    1
    57    64    62    1
    58    65    62    1
    59    66    49    1
    60    67     1    1
    61    68    67    1
    62    69    20    1
    63    70    69    1
    64    71    41    1
    65    72     6    1
    66    73    26    2
    67    74    26    1
    68    75    58    2
    69    76    58    1
    70    77    55    2
    71     7    72    1
    72    11    13   ar
    73    15    67    1
    74    23    69    1
    75    27    74    1
    76    44    71    1
    77    50    52   ar
    78    53    56    1
    79    55    71   am
    80    59    76    1
@<TRIPOS>SUBSTRUCTURE
     1 RES1        1 GROUP             0 ****  ****    0  
@<TRIPOS>CRYSIN
    7.7364   14.9510   14.9540  118.5340   92.4390   90.1530     2     1
