@<TRIPOS>MOLECULE
01
    19    20     1     0     0
SMALL
NO_CHARGES
****
Generated from the CSD

@<TRIPOS>ATOM
     1 C1      10.4642   5.1471   0.8712   C.ar      1 RES1   0.0000
     2 C2      10.9371   3.8849   1.1822   C.ar      1 RES1   0.0000
     3 H1      11.3561   3.3640   0.5353   H         1 RES1   0.0000
     4 C3      10.7771   3.4225   2.4432   C.ar      1 RES1   0.0000
     5 H2      11.1001   2.5797   2.6675   H         1 RES1   0.0000
     6 C4      10.1306   4.1961   3.4194   C.ar      1 RES1   0.0000
     7 C5       9.4224   4.3059   5.6972   C.3       1 RES1   0.0000
     8 H3       9.8636   5.1499   5.8166   H         1 RES1   0.0000
     9 H4       9.4822   3.7955   6.5081   H         1 RES1   0.0000
    10 H5       8.4998   4.4559   5.4794   H         1 RES1   0.0000
    11 C6       9.6442   5.4530   3.1320   C.ar      1 RES1   0.0000
    12 H6       9.2119   5.9590   3.7815   H         1 RES1   0.0000
    13 C7       9.8196   5.9437   1.8383   C.ar      1 RES1   0.0000
    14 C8       9.4980   7.1857   1.2111   C.2       1 RES1   0.0000
    15 C9       9.9399   7.0894  -0.0735   C.2       1 RES1   0.0000
    16 H7       9.8663   7.7611  -0.7112   H         1 RES1   0.0000
    17 N1      10.5088   5.8597  -0.2913   N.pl3     1 RES1   0.0000
    18 H35     10.8377   5.5850  -1.0366   H         1 RES1   0.0000
    19 O1      10.0396   3.6001   4.6541   O.3       1 RES1   0.0000
@<TRIPOS>BOND
     1     1     2   ar
     2     2     3    1
     3     4     2   ar
     4     5     4    1
     5     6     4   ar
     6     7     8    1
     7     9     7    1
     8    10     7    1
     9    11     6   ar
    10    12    11    1
    11    13     1   ar
    12    14    13    1
    13    15    14    2
    14    16    15    1
    15    17     1    1
    16    18    17    1
    17    19     6    1
    18     7    19    1
    19    11    13   ar
    20    15    17    1
@<TRIPOS>SUBSTRUCTURE
     1 RES1        1 GROUP             0 ****  ****    0  
