@<TRIPOS>MOLECULE
01
    28    28     1     0     0
SMALL
NO_CHARGES
****
Generated from the CSD

@<TRIPOS>ATOM
     1 O5      13.5635   8.4842  19.8554   O.2       1 RES1   0.0000
     2 O6      14.5956   7.0780  18.4191   O.3       1 RES1   0.0000
     3 N3      12.3415   6.1068  17.4122   N.2       1 RES1   0.0000
     4 C8      12.2103   4.7024  17.8660   C.3       1 RES1   0.0000
     5 H9      13.1435   4.2983  18.1310   H         1 RES1   0.0000
     6 H10     11.7722   4.1014  17.1255   H         1 RES1   0.0000
     7 C9      11.3135   4.8411  19.0645   C.3       1 RES1   0.0000
     8 H11     10.3044   4.8309  18.7706   H         1 RES1   0.0000
     9 H12     11.4764   4.0520  19.7373   H         1 RES1   0.0000
    10 C10     11.6525   6.1241  19.6869   C.3       1 RES1   0.0000
    11 H13     12.3747   5.9878  20.4374   H         1 RES1   0.0000
    12 H14     10.7986   6.5597  20.1176   H         1 RES1   0.0000
    13 C11     12.2136   7.0346  18.5502   C.3       1 RES1   0.0000
    14 H15     11.5310   7.7987  18.3226   H         1 RES1   0.0000
    15 C12     13.5400   7.6285  19.0040   C.2       1 RES1   0.0000
    16 C13     15.9768   7.5350  18.7231   C.3       1 RES1   0.0000
    17 C14     16.0793   8.9966  18.3889   C.3       1 RES1   0.0000
    18 H16     15.8191   9.1436  17.3805   H         1 RES1   0.0000
    19 H17     17.0593   9.3268  18.5502   H         1 RES1   0.0000
    20 H18     15.4204   9.5411  18.9997   H         1 RES1   0.0000
    21 C15     16.7990   6.7186  17.7695   C.3       1 RES1   0.0000
    22 H19     16.5418   6.9691  16.7827   H         1 RES1   0.0000
    23 H20     16.6130   5.6992  17.9337   H         1 RES1   0.0000
    24 H21     17.8195   6.9209  17.9250   H         1 RES1   0.0000
    25 C16     16.3181   7.2303  20.1046   C.3       1 RES1   0.0000
    26 H22     15.7305   7.8177  20.7471   H         1 RES1   0.0000
    27 H23     17.3327   7.4422  20.2688   H         1 RES1   0.0000
    28 H24     16.1384   6.2145  20.2933   H         1 RES1   0.0000
@<TRIPOS>BOND
     1     1    15    2
     2     2    15    1
     3     4     3    1
     4     5     4    1
     5     6     4    1
     6     7     4    1
     7     8     7    1
     8     9     7    1
     9    10     7    1
    10    11    10    1
    11    12    10    1
    12    13     3    1
    13    14    13    1
    14    15    13    1
    15    16     2    1
    16    17    16    1
    17    18    17    1
    18    19    17    1
    19    20    17    1
    20    21    16    1
    21    22    21    1
    22    23    21    1
    23    24    21    1
    24    25    16    1
    25    26    25    1
    26    27    25    1
    27    28    25    1
    28    10    13    1
@<TRIPOS>SUBSTRUCTURE
     1 RES1        1 GROUP             0 ****  ****    0  
