@<TRIPOS>MOLECULE
02
    25    27     1     0     0
SMALL
NO_CHARGES
****
Generated from the CSD

@<TRIPOS>ATOM
     1 C6       9.5564   1.1051  10.8014   C.3       1 RES2   0.0000
     2 H4       9.1255   1.9221  10.3001   H         1 RES2   0.0000
     3 H5       8.8486   0.3291  10.8345   H         1 RES2   0.0000
     4 C21     10.8025   0.6433  10.0725   C.3       1 RES2   0.0000
     5 H34     11.3384  -0.0363  10.6674   H         1 RES2   0.0000
     6 C22     11.7150   1.7877   9.6273   C.ar      1 RES2   0.0000
     7 C23     11.7986   1.7823   8.2185   C.ar      1 RES2   0.0000
     8 C24     12.5436   2.7785   7.5702   C.ar      1 RES2   0.0000
     9 H35     12.6178   2.7904   6.5229   H         1 RES2   0.0000
    10 C25     13.1815   3.7443   8.3294   C.ar      1 RES2   0.0000
    11 H36     13.7397   4.4935   7.8526   H         1 RES2   0.0000
    12 C26     13.0848   3.7336   9.7267   C.ar      1 RES2   0.0000
    13 H37     13.5748   4.4775  10.2828   H         1 RES2   0.0000
    14 C27     12.3555   2.7571  10.3836   C.ar      1 RES2   0.0000
    15 H38     12.2888   2.7511  11.4324   H         1 RES2   0.0000
    16 C28     10.4217  -0.0006   8.7644   C.ar      1 RES2   0.0000
    17 C29     11.0018   0.6784   7.6797   C.ar      1 RES2   0.0000
    18 C30     10.7655   0.2589   6.3846   C.ar      1 RES2   0.0000
    19 H39     11.1937   0.7748   5.5779   H         1 RES2   0.0000
    20 C31      9.9616  -0.8480   6.1556   C.ar      1 RES2   0.0000
    21 H40      9.7864  -1.1676   5.1702   H         1 RES2   0.0000
    22 C32      9.3953  -1.5276   7.2029   C.ar      1 RES2   0.0000
    23 H41      8.7961  -2.3685   7.0127   H         1 RES2   0.0000
    24 C33      9.6099  -1.1098   8.5282   C.ar      1 RES2   0.0000
    25 H42      9.1669  -1.6252   9.3291   H         1 RES2   0.0000
@<TRIPOS>BOND
     1     2     1    1
     2     3     1    1
     3     4     1    1
     4     5     4    1
     5     6     4    1
     6     7     6   ar
     7     8     7   ar
     8     9     8    1
     9    10     8   ar
    10    11    10    1
    11    12    10   ar
    12    13    12    1
    13    14     6   ar
    14    15    14    1
    15    16     4    1
    16    17     7    1
    17    18    17   ar
    18    19    18    1
    19    20    18   ar
    20    21    20    1
    21    22    20   ar
    22    23    22    1
    23    24    16   ar
    24    25    24    1
    25    12    14   ar
    26    16    17   ar
    27    22    24   ar
@<TRIPOS>SUBSTRUCTURE
     1 RES2        1 GROUP             0 ****  ****    0  
