@<TRIPOS>MOLECULE
YAPMUY
    88    91     1     0     0
SMALL
NO_CHARGES
****
Generated from the CSD

@<TRIPOS>ATOM
     1 O1      12.5912   7.8308  15.9659   O.2       1 RES1   0.0000
     2 O2      10.0630   6.1491  15.1908   O.2       1 RES1   0.0000
     3 O3       9.0340   3.5563  11.9683   O.2       1 RES1   0.0000
     4 O4       9.9384   1.4949  12.1570   O.3       1 RES1   0.0000
     5 O5      13.5635   8.4842  19.8554   O.2       1 RES1   0.0000
     6 O6      14.5956   7.0780  18.4191   O.3       1 RES1   0.0000
     7 N1      11.7385   4.6715  14.8249   N.am      1 RES1   0.0000
     8 H1      11.9497   3.8133  14.6564   H         1 RES1   0.0000
     9 N2       9.8440   2.7713  13.9375   N.am      1 RES1   0.0000
    10 H2      10.3245   2.1078  14.3106   H         1 RES1   0.0000
    11 N3      12.3415   6.1068  17.4122   N.am      1 RES1   0.0000
    12 F1      14.0382   7.2065  13.6970   F         1 RES1   0.0000
    13 F2      13.0446   5.5784  12.6626   F         1 RES1   0.0000
    14 C1      12.5492   6.5966  16.1690   C.2       1 RES1   0.0000
    15 C2      12.8169   5.6165  15.0007   C.3       1 RES1   0.0000
    16 C3      10.4591   4.9916  14.8998   C.2       1 RES1   0.0000
    17 C4       9.4003   3.8925  14.7644   C.3       1 RES1   0.0000
    18 H3       8.5556   4.3144  14.3078   H         1 RES1   0.0000
    19 C5       9.5487   2.7196  12.6468   C.2       1 RES1   0.0000
    20 C6       9.5564   1.1051  10.8014   C.3       1 RES1   0.0000
    21 H4       9.1255   1.9221  10.3001   H         1 RES1   0.0000
    22 H5       8.8486   0.3291  10.8345   H         1 RES1   0.0000
    23 C7      14.1161   4.8541  15.2326   C.3       1 RES1   0.0000
    24 H6      14.0326   4.2829  16.1099   H         1 RES1   0.0000
    25 H7      14.9098   5.5355  15.3306   H         1 RES1   0.0000
    26 H8      14.2987   4.2192  14.4172   H         1 RES1   0.0000
    27 C8      12.2103   4.7024  17.8660   C.3       1 RES1   0.0000
    28 H9      13.1435   4.2983  18.1310   H         1 RES1   0.0000
    29 H10     11.7722   4.1014  17.1255   H         1 RES1   0.0000
    30 C9      11.3135   4.8411  19.0645   C.3       1 RES1   0.0000
    31 H11     10.3044   4.8309  18.7706   H         1 RES1   0.0000
    32 H12     11.4764   4.0520  19.7373   H         1 RES1   0.0000
    33 C10     11.6525   6.1241  19.6869   C.3       1 RES1   0.0000
    34 H13     12.3747   5.9878  20.4374   H         1 RES1   0.0000
    35 H14     10.7986   6.5597  20.1176   H         1 RES1   0.0000
    36 C11     12.2136   7.0346  18.5502   C.3       1 RES1   0.0000
    37 H15     11.5310   7.7987  18.3226   H         1 RES1   0.0000
    38 C12     13.5400   7.6285  19.0040   C.2       1 RES1   0.0000
    39 C13     15.9768   7.5350  18.7231   C.3       1 RES1   0.0000
    40 C14     16.0793   8.9966  18.3889   C.3       1 RES1   0.0000
    41 H16     15.8191   9.1436  17.3805   H         1 RES1   0.0000
    42 H17     17.0593   9.3268  18.5502   H         1 RES1   0.0000
    43 H18     15.4204   9.5411  18.9997   H         1 RES1   0.0000
    44 C15     16.7990   6.7186  17.7695   C.3       1 RES1   0.0000
    45 H19     16.5418   6.9691  16.7827   H         1 RES1   0.0000
    46 H20     16.6130   5.6992  17.9337   H         1 RES1   0.0000
    47 H21     17.8195   6.9209  17.9250   H         1 RES1   0.0000
    48 C16     16.3181   7.2303  20.1046   C.3       1 RES1   0.0000
    49 H22     15.7305   7.8177  20.7471   H         1 RES1   0.0000
    50 H23     17.3327   7.4422  20.2688   H         1 RES1   0.0000
    51 H24     16.1384   6.2145  20.2933   H         1 RES1   0.0000
    52 C17      8.9905   3.4146  16.1618   C.3       1 RES1   0.0000
    53 H25      9.7721   2.8368  16.5623   H         1 RES1   0.0000
    54 H26      8.8636   4.2531  16.7812   H         1 RES1   0.0000
    55 C18      7.7131   2.5940  16.1891   C.3       1 RES1   0.0000
    56 H27      7.7875   1.8442  15.4573   H         1 RES1   0.0000
    57 C19      7.5646   1.9210  17.5519   C.3       1 RES1   0.0000
    58 H28      8.4116   1.3318  17.7464   H         1 RES1   0.0000
    59 H29      6.7056   1.3134  17.5505   H         1 RES1   0.0000
    60 H30      7.4720   2.6559  18.2967   H         1 RES1   0.0000
    61 C20      6.5109   3.4545  15.8693   C.3       1 RES1   0.0000
    62 H31      5.6405   2.8660  15.8981   H         1 RES1   0.0000
    63 H32      6.6231   3.8687  14.9114   H         1 RES1   0.0000
    64 H33      6.4334   4.2257  16.5781   H         1 RES1   0.0000
    65 C21     10.8025   0.6433  10.0725   C.3       1 RES1   0.0000
    66 H34     11.3384  -0.0363  10.6674   H         1 RES1   0.0000
    67 C22     11.7150   1.7877   9.6273   C.ar      1 RES1   0.0000
    68 C23     11.7986   1.7823   8.2185   C.ar      1 RES1   0.0000
    69 C24     12.5436   2.7785   7.5702   C.ar      1 RES1   0.0000
    70 H35     12.6178   2.7904   6.5229   H         1 RES1   0.0000
    71 C25     13.1815   3.7443   8.3294   C.ar      1 RES1   0.0000
    72 H36     13.7397   4.4935   7.8526   H         1 RES1   0.0000
    73 C26     13.0848   3.7336   9.7267   C.ar      1 RES1   0.0000
    74 H37     13.5748   4.4775  10.2828   H         1 RES1   0.0000
    75 C27     12.3555   2.7571  10.3836   C.ar      1 RES1   0.0000
    76 H38     12.2888   2.7511  11.4324   H         1 RES1   0.0000
    77 C28     10.4217  -0.0006   8.7644   C.ar      1 RES1   0.0000
    78 C29     11.0018   0.6784   7.6797   C.ar      1 RES1   0.0000
    79 C30     10.7655   0.2589   6.3846   C.ar      1 RES1   0.0000
    80 H39     11.1937   0.7748   5.5779   H         1 RES1   0.0000
    81 C31      9.9616  -0.8480   6.1556   C.ar      1 RES1   0.0000
    82 H40      9.7864  -1.1676   5.1702   H         1 RES1   0.0000
    83 C32      9.3953  -1.5276   7.2029   C.ar      1 RES1   0.0000
    84 H41      8.7961  -2.3685   7.0127   H         1 RES1   0.0000
    85 C33      9.6099  -1.1098   8.5282   C.ar      1 RES1   0.0000
    86 H42      9.1669  -1.6252   9.3291   H         1 RES1   0.0000
    87 C34     12.9008   6.4555  13.7229   C.3       1 RES1   0.0000
    88 H43     12.0442   7.0554  13.6062   H         1 RES1   0.0000
@<TRIPOS>BOND
     1     1    14    2
     2     2    16    2
     3     3    19    2
     4     4    19    1
     5     5    38    2
     6     6    38    1
     7     7     8    1
     8     9    10    1
     9    11    14   am
    10    12    87    1
    11    13    87    1
    12    14    15    1
    13    15     7    1
    14    16     7   am
    15    17     9    1
    16    18    17    1
    17    19     9   am
    18    20     4    1
    19    21    20    1
    20    22    20    1
    21    23    15    1
    22    24    23    1
    23    25    23    1
    24    26    23    1
    25    27    11    1
    26    28    27    1
    27    29    27    1
    28    30    27    1
    29    31    30    1
    30    32    30    1
    31    33    30    1
    32    34    33    1
    33    35    33    1
    34    36    11    1
    35    37    36    1
    36    38    36    1
    37    39     6    1
    38    40    39    1
    39    41    40    1
    40    42    40    1
    41    43    40    1
    42    44    39    1
    43    45    44    1
    44    46    44    1
    45    47    44    1
    46    48    39    1
    47    49    48    1
    48    50    48    1
    49    51    48    1
    50    52    17    1
    51    53    52    1
    52    54    52    1
    53    55    52    1
    54    56    55    1
    55    57    55    1
    56    58    57    1
    57    59    57    1
    58    60    57    1
    59    61    55    1
    60    62    61    1
    61    63    61    1
    62    64    61    1
    63    65    20    1
    64    66    65    1
    65    67    65    1
    66    68    67   ar
    67    69    68   ar
    68    70    69    1
    69    71    69   ar
    70    72    71    1
    71    73    71   ar
    72    74    73    1
    73    75    67   ar
    74    76    75    1
    75    77    65    1
    76    78    68    1
    77    79    78   ar
    78    80    79    1
    79    81    79   ar
    80    82    81    1
    81    83    81   ar
    82    84    83    1
    83    85    77   ar
    84    86    85    1
    85    87    15    1
    86    88    87    1
    87    16    17    1
    88    33    36    1
    89    73    75   ar
    90    77    78   ar
    91    83    85   ar
@<TRIPOS>SUBSTRUCTURE
     1 RES1        1 GROUP             0 ****  ****    0  
@<TRIPOS>CRYSIN
   39.2360    5.9509   14.7641   90.0000  102.6500   90.0000     5     1
