@<TRIPOS>MOLECULE
02
    15    15     1     0     0
SMALL
NO_CHARGES
****
Generated from the CSD

@<TRIPOS>ATOM
     1 O2      -8.9816  11.7033  10.5537   O.3       1 RES2   0.0000
     2 C10     -9.3973  10.3826   8.6486   C.ar      1 RES2   0.0000
     3 C11     -9.8822  11.3157   9.5927   C.ar      1 RES2   0.0000
     4 C14    -11.5546  10.4587   7.5592   C.ar      1 RES2   0.0000
     5 H8     -12.1278  10.1650   6.8617   H         1 RES2   0.0000
     6 C17    -10.2587   9.9581   7.6525   C.ar      1 RES2   0.0000
     7 H12     -9.9613   9.3134   7.0216   H         1 RES2   0.0000
     8 C19    -12.0044  11.3787   8.4755   C.ar      1 RES2   0.0000
     9 H14    -12.8853  11.7268   8.4012   H         1 RES2   0.0000
    10 C21    -11.1820  11.8035   9.5065   C.ar      1 RES2   0.0000
    11 H15    -11.5036  12.4231  10.1508   H         1 RES2   0.0000
    12 C31     -9.3699  12.7761  11.3985   C.3       1 RES2   0.0000
    13 H32     -8.6534  12.9598  12.0416   H         1 RES2   0.0000
    14 H33    -10.1871  12.5322  11.8805   H         1 RES2   0.0000
    15 H34     -9.5354  13.5752  10.8569   H         1 RES2   0.0000
@<TRIPOS>BOND
     1     1     3    1
     2     2     3   ar
     3     3    10   ar
     4     4     5    1
     5     6     2   ar
     6     7     6    1
     7     8     4   ar
     8     9     8    1
     9    10     8   ar
    10    11    10    1
    11    12     1    1
    12    13    12    1
    13    14    12    1
    14    15    12    1
    15     4     6   ar
@<TRIPOS>SUBSTRUCTURE
     1 RES2        1 GROUP             0 ****  ****    0  
