@<TRIPOS>MOLECULE
01
    31    34     1     0     0
SMALL
NO_CHARGES
****
Generated from the CSD

@<TRIPOS>ATOM
     1 O1      -1.3910   2.5910   7.6224   O.2       1 RES1   0.0000
     2 O3      -2.6377   4.2755  11.6803   O.2       1 RES1   0.0000
     3 C1      -1.5917   3.4007   8.5035   C.2       1 RES1   0.0000
     4 N1      -1.6147   5.2886   9.8619   N.am      1 RES1   0.0000
     5 N2      -2.2518   3.1659   9.6760   N.am      1 RES1   0.0000
     6 C2       0.4310   5.8235   7.0207   C.ar      1 RES1   0.0000
     7 C3       0.2865   5.0970   8.2110   C.ar      1 RES1   0.0000
     8 C4      -2.2055   4.2705  10.5360   C.2       1 RES1   0.0000
     9 C5      -1.8710   5.6203   7.3581   C.ar      1 RES1   0.0000
    10 C6      -3.2221   5.7521   7.0921   C.ar      1 RES1   0.0000
    11 H1      -3.8726   5.3712   7.6706   H         1 RES1   0.0000
    12 C7       1.3836   4.6255   8.9095   C.ar      1 RES1   0.0000
    13 H2       1.2775   4.1365   9.7166   H         1 RES1   0.0000
    14 C8      -1.2911   6.8501   5.3574   C.ar      1 RES1   0.0000
    15 H3      -0.6428   7.2156   4.7679   H         1 RES1   0.0000
    16 C12     -0.9045   6.1514   6.4984   C.ar      1 RES1   0.0000
    17 C16      2.8018   5.6097   7.2084   C.ar      1 RES1   0.0000
    18 H11      3.6740   5.7830   6.8746   H         1 RES1   0.0000
    19 C18      1.6969   6.0767   6.5097   C.ar      1 RES1   0.0000
    20 H13      1.8046   6.5591   5.6993   H         1 RES1   0.0000
    21 C20     -1.1914   4.8850   8.5191   C.3       1 RES1   0.0000
    22 C25      2.6519   4.8921   8.3905   C.ar      1 RES1   0.0000
    23 H22      3.4220   4.5800   8.8506   H         1 RES1   0.0000
    24 C28     -2.6515   6.9987   5.1033   C.ar      1 RES1   0.0000
    25 H27     -2.9308   7.4791   4.3325   H         1 RES1   0.0000
    26 C29     -3.6056   6.4607   5.9507   C.ar      1 RES1   0.0000
    27 H28     -4.5285   6.5741   5.7541   H         1 RES1   0.0000
    28 C30     -2.7856   1.8691  10.0543   C.3       1 RES1   0.0000
    29 H29     -3.2179   1.9366  10.9305   H         1 RES1   0.0000
    30 H30     -2.0564   1.2163  10.0995   H         1 RES1   0.0000
    31 H31     -3.4432   1.5796   9.3875   H         1 RES1   0.0000
@<TRIPOS>BOND
     1     1     3    2
     2     2     8    2
     3     3     5   am
     4     4     8   am
     5     5     8   am
     6     6     7   ar
     7     7    12   ar
     8     9    10   ar
     9    10    11    1
    10    12    13    1
    11    14    15    1
    12    16     6    1
    13    17    18    1
    14    19     6   ar
    15    20    19    1
    16    21     3    1
    17    22    12   ar
    18    23    22    1
    19    24    14   ar
    20    25    24    1
    21    26    10   ar
    22    27    26    1
    23    28     5    1
    24    29    28    1
    25    30    28    1
    26    31    28    1
    27     4    21    1
    28     7    21    1
    29     9    16   ar
    30     9    21    1
    31    14    16   ar
    32    17    19   ar
    33    17    22   ar
    34    24    26   ar
@<TRIPOS>SUBSTRUCTURE
     1 RES1        1 GROUP             0 ****  ****    0  
