@<TRIPOS>MOLECULE
YOWJUS
    72    77     1     0     0
SMALL
NO_CHARGES
****
Generated from the CSD

@<TRIPOS>ATOM
     1 O1      -1.3910   2.5910   7.6224   O.2       1 RES1   0.0000
     2 O2      -8.9816  11.7033  10.5537   O.3       1 RES1   0.0000
     3 O3      -2.6377   4.2755  11.6803   O.2       1 RES1   0.0000
     4 C1      -1.5917   3.4007   8.5035   C.2       1 RES1   0.0000
     5 N1      -1.6147   5.2886   9.8619   N.am      1 RES1   0.0000
     6 N2      -2.2518   3.1659   9.6760   N.am      1 RES1   0.0000
     7 C2       0.4310   5.8235   7.0207   C.ar      1 RES1   0.0000
     8 N3      -8.0317   9.9979   8.7210   N.3       1 RES1   0.0000
     9 N4      -5.5149   8.6382   8.8054   N.3       1 RES1   0.0000
    10 C3       0.2865   5.0970   8.2110   C.ar      1 RES1   0.0000
    11 C4      -2.2055   4.2705  10.5360   C.2       1 RES1   0.0000
    12 C5      -1.8710   5.6203   7.3581   C.ar      1 RES1   0.0000
    13 C6      -3.2221   5.7521   7.0921   C.ar      1 RES1   0.0000
    14 H1      -3.8726   5.3712   7.6706   H         1 RES1   0.0000
    15 C7       1.3836   4.6255   8.9095   C.ar      1 RES1   0.0000
    16 H2       1.2775   4.1365   9.7166   H         1 RES1   0.0000
    17 C8      -1.2911   6.8501   5.3574   C.ar      1 RES1   0.0000
    18 H3      -0.6428   7.2156   4.7679   H         1 RES1   0.0000
    19 C9      -1.2705   6.5594  10.4957   C.3       1 RES1   0.0000
    20 H4      -0.2891   6.6818  10.4543   H         1 RES1   0.0000
    21 H5      -1.5299   6.5211  11.4499   H         1 RES1   0.0000
    22 C10     -9.3973  10.3826   8.6486   C.ar      1 RES1   0.0000
    23 C11     -9.8822  11.3157   9.5927   C.ar      1 RES1   0.0000
    24 C12     -0.9045   6.1514   6.4984   C.ar      1 RES1   0.0000
    25 C13     -5.9116   9.4931   7.6760   C.3       1 RES1   0.0000
    26 H6      -5.4828   9.1618   6.8477   H         1 RES1   0.0000
    27 H7      -5.5925  10.4162   7.8363   H         1 RES1   0.0000
    28 C14    -11.5546  10.4587   7.5592   C.ar      1 RES1   0.0000
    29 H8     -12.1278  10.1650   6.8617   H         1 RES1   0.0000
    30 C15     -3.4641   7.7156   9.9282   C.3       1 RES1   0.0000
    31 H9      -3.7845   6.8100   9.6898   H         1 RES1   0.0000
    32 H10     -3.7579   7.9136  10.8523   H         1 RES1   0.0000
    33 C16      2.8018   5.6097   7.2084   C.ar      1 RES1   0.0000
    34 H11      3.6740   5.7830   6.8746   H         1 RES1   0.0000
    35 C17    -10.2587   9.9581   7.6525   C.ar      1 RES1   0.0000
    36 H12     -9.9613   9.3134   7.0216   H         1 RES1   0.0000
    37 C18      1.6969   6.0767   6.5097   C.ar      1 RES1   0.0000
    38 H13      1.8046   6.5591   5.6993   H         1 RES1   0.0000
    39 C19    -12.0044  11.3787   8.4755   C.ar      1 RES1   0.0000
    40 H14    -12.8853  11.7268   8.4012   H         1 RES1   0.0000
    41 C20     -1.1914   4.8850   8.5191   C.3       1 RES1   0.0000
    42 C21    -11.1820  11.8035   9.5065   C.ar      1 RES1   0.0000
    43 H15    -11.5036  12.4231  10.1508   H         1 RES1   0.0000
    44 C22     -7.7124   9.0855   9.8196   C.3       1 RES1   0.0000
    45 H16     -8.0482   8.1780   9.6092   H         1 RES1   0.0000
    46 H17     -8.1541   9.3948  10.6504   H         1 RES1   0.0000
    47 C23     -4.0634   8.7382   8.9715   C.3       1 RES1   0.0000
    48 H18     -3.8451   9.6463   9.3011   H         1 RES1   0.0000
    49 H19     -3.6354   8.6313   8.0849   H         1 RES1   0.0000
    50 C24     -7.4132   9.5060   7.4921   C.3       1 RES1   0.0000
    51 H20     -7.6556  10.0940   6.7334   H         1 RES1   0.0000
    52 H21     -7.7370   8.5919   7.2936   H         1 RES1   0.0000
    53 C25      2.6519   4.8921   8.3905   C.ar      1 RES1   0.0000
    54 H22      3.4220   4.5800   8.8506   H         1 RES1   0.0000
    55 C26     -1.9389   7.7544   9.8567   C.3       1 RES1   0.0000
    56 H23     -1.6647   7.8035   8.9066   H         1 RES1   0.0000
    57 H24     -1.6181   8.5769  10.3049   H         1 RES1   0.0000
    58 C27     -6.2097   9.0405  10.0243   C.3       1 RES1   0.0000
    59 H25     -5.8904   9.9347  10.3037   H         1 RES1   0.0000
    60 H26     -5.9968   8.4001  10.7496   H         1 RES1   0.0000
    61 C28     -2.6515   6.9987   5.1033   C.ar      1 RES1   0.0000
    62 H27     -2.9308   7.4791   4.3325   H         1 RES1   0.0000
    63 C29     -3.6056   6.4607   5.9507   C.ar      1 RES1   0.0000
    64 H28     -4.5285   6.5741   5.7541   H         1 RES1   0.0000
    65 C30     -2.7856   1.8691  10.0543   C.3       1 RES1   0.0000
    66 H29     -3.2179   1.9366  10.9305   H         1 RES1   0.0000
    67 H30     -2.0564   1.2163  10.0995   H         1 RES1   0.0000
    68 H31     -3.4432   1.5796   9.3875   H         1 RES1   0.0000
    69 C31     -9.3699  12.7761  11.3985   C.3       1 RES1   0.0000
    70 H32     -8.6534  12.9598  12.0416   H         1 RES1   0.0000
    71 H33    -10.1871  12.5322  11.8805   H         1 RES1   0.0000
    72 H34     -9.5354  13.5752  10.8569   H         1 RES1   0.0000
@<TRIPOS>BOND
     1     1     4    2
     2     2    23    1
     3     3    11    2
     4     4     6   am
     5     5    11   am
     6     6    11   am
     7     7    10   ar
     8     8    22    1
     9     9    25    1
    10    10    15   ar
    11    12    13   ar
    12    13    14    1
    13    15    16    1
    14    17    18    1
    15    19     5    1
    16    20    19    1
    17    21    19    1
    18    22    23   ar
    19    23    42   ar
    20    24     7    1
    21    25    26    1
    22    27    25    1
    23    28    29    1
    24    30    31    1
    25    32    30    1
    26    33    34    1
    27    35    22   ar
    28    36    35    1
    29    37     7   ar
    30    38    37    1
    31    39    28   ar
    32    40    39    1
    33    41     4    1
    34    42    39   ar
    35    43    42    1
    36    44     8    1
    37    45    44    1
    38    46    44    1
    39    47     9    1
    40    48    47    1
    41    49    47    1
    42    50     8    1
    43    51    50    1
    44    52    50    1
    45    53    15   ar
    46    54    53    1
    47    55    19    1
    48    56    55    1
    49    57    55    1
    50    58     9    1
    51    59    58    1
    52    60    58    1
    53    61    17   ar
    54    62    61    1
    55    63    13   ar
    56    64    63    1
    57    65     6    1
    58    66    65    1
    59    67    65    1
    60    68    65    1
    61    69     2    1
    62    70    69    1
    63    71    69    1
    64    72    69    1
    65     5    41    1
    66    10    41    1
    67    12    24   ar
    68    12    41    1
    69    17    24   ar
    70    25    50    1
    71    28    35   ar
    72    30    47    1
    73    30    55    1
    74    33    37   ar
    75    33    53   ar
    76    44    58    1
    77    61    63   ar
@<TRIPOS>SUBSTRUCTURE
     1 RES1        1 GROUP             0 ****  ****    0  
@<TRIPOS>CRYSIN
   10.3380   11.4320   12.7650   92.9780  111.9760  105.0890     2     1
