@<TRIPOS>MOLECULE
02
    16    16     1     0     0
SMALL
NO_CHARGES
****
Generated from the CSD

@<TRIPOS>ATOM
     1 O7       8.8461   5.2585   8.6333   O.2       1 RES2   0.0000
     2 O8       8.6814   3.7946  10.2077   O.2       1 RES2   0.0000
     3 N4       8.3323   4.2670   9.1275   N.pl3     1 RES2   0.0000
     4 C12      4.0593   1.6684   6.3401   C.3       1 RES2   0.0000
     5 H17      4.4427   0.9180   5.8203   H         1 RES2   0.0000
     6 H18      3.4035   1.2994   6.9834   H         1 RES2   0.0000
     7 C13      5.1506   2.3941   7.0769   C.ar      1 RES2   0.0000
     8 C14      5.8906   3.3951   6.4692   C.ar      1 RES2   0.0000
     9 H19      5.6789   3.6550   5.5802   H         1 RES2   0.0000
    10 C15      6.9346   4.0273   7.1309   C.ar      1 RES2   0.0000
    11 H20      7.4301   4.7231   6.7151   H         1 RES2   0.0000
    12 C16      7.2290   3.6092   8.4166   C.ar      1 RES2   0.0000
    13 C17      6.5137   2.6122   9.0514   C.ar      1 RES2   0.0000
    14 H21      6.7398   2.3429   9.9339   H         1 RES2   0.0000
    15 C18      5.4647   2.0136   8.3816   C.ar      1 RES2   0.0000
    16 H22      4.9533   1.3386   8.8123   H         1 RES2   0.0000
@<TRIPOS>BOND
     1     1     3    2
     2     2     3    2
     3     3    12    1
     4     5     4    1
     5     6     4    1
     6     7     4    1
     7     8     7   ar
     8     9     8    1
     9    10     8   ar
    10    11    10    1
    11    12    10   ar
    12    13    12   ar
    13    14    13    1
    14    15     7   ar
    15    16    15    1
    16    13    15   ar
@<TRIPOS>SUBSTRUCTURE
     1 RES2        1 GROUP             0 ****  ****    0  
