@<TRIPOS>MOLECULE
01
    13    13     1     0     0
SMALL
NO_CHARGES
****
Generated from the CSD

@<TRIPOS>ATOM
     1 O1      -5.5194   0.8930   4.6252   O.2       1 RES1   0.0000
     2 O2      -4.0219   2.6599   0.9934   O.2       1 RES1   0.0000
     3 N1      -5.1529   1.2347   2.3345   N.am      1 RES1   0.0000
     4 N2      -3.6805   2.7333   3.2540   N.am      1 RES1   0.0000
     5 H2      -3.8794   2.3116   4.0402   H         1 RES1   0.0000
     6 C1      -5.7295   0.6618   3.4571   C.2       1 RES1   0.0000
     7 C2      -6.6278  -0.2161   2.6222   C.3       1 RES1   0.0000
     8 H4      -7.5922  -0.0091   2.7072   H         1 RES1   0.0000
     9 H5      -6.4563  -1.1861   2.7229   H         1 RES1   0.0000
    10 C3      -5.9478   0.4236   1.3931   C.3       1 RES1   0.0000
    11 H6      -5.4114  -0.2096   0.8532   H         1 RES1   0.0000
    12 H7      -6.5603   0.9522   0.8224   H         1 RES1   0.0000
    13 C4      -4.2435   2.2559   2.1417   C.2       1 RES1   0.0000
@<TRIPOS>BOND
     1     1     6    2
     2     2    13    2
     3     3     6   am
     4     4     5    1
     5     6     7    1
     6     7     8    1
     7     9     7    1
     8    10     3    1
     9    11    10    1
    10    12    10    1
    11    13     3   am
    12     4    13   am
    13     7    10    1
@<TRIPOS>SUBSTRUCTURE
     1 RES1        1 GROUP             0 ****  ****    0  
