@<TRIPOS>MOLECULE
ZEZXAH
    52    53     1     0     0
SMALL
NO_CHARGES
****
Generated from the CSD

@<TRIPOS>ATOM
     1 O1      -5.5194   0.8930   4.6252   O.2       1 RES1   0.0000
     2 O2      -4.0219   2.6599   0.9934   O.2       1 RES1   0.0000
     3 O3       3.9760   2.3388   1.6234   O.2       1 RES1   0.0000
     4 O4       2.2982   1.6679   0.2942   O.3       1 RES1   0.0000
     5 H1       2.9561   1.3820  -0.1567   H         1 RES1   0.0000
     6 O5       2.6928   0.8724   4.1693   O.2       1 RES1   0.0000
     7 O6       3.4090   2.6016   5.4529   O.3       1 RES1   0.0000
     8 O7       8.8461   5.2585   8.6333   O.2       1 RES1   0.0000
     9 O8       8.6814   3.7946  10.2077   O.2       1 RES1   0.0000
    10 N1      -5.1529   1.2347   2.3345   N.am      1 RES1   0.0000
    11 N2      -3.6805   2.7333   3.2540   N.am      1 RES1   0.0000
    12 H2      -3.8794   2.3116   4.0402   H         1 RES1   0.0000
    13 N3       2.2074   3.0323   3.6357   N.am      1 RES1   0.0000
    14 H3       2.4414   3.8795   3.7926   H         1 RES1   0.0000
    15 N4       8.3323   4.2670   9.1275   N.pl3     1 RES1   0.0000
    16 C1      -5.7295   0.6618   3.4571   C.2       1 RES1   0.0000
    17 C2      -6.6278  -0.2161   2.6222   C.3       1 RES1   0.0000
    18 H4      -7.5922  -0.0091   2.7072   H         1 RES1   0.0000
    19 H5      -6.4563  -1.1861   2.7229   H         1 RES1   0.0000
    20 C3      -5.9478   0.4236   1.3931   C.3       1 RES1   0.0000
    21 H6      -5.4114  -0.2096   0.8532   H         1 RES1   0.0000
    22 H7      -6.5603   0.9522   0.8224   H         1 RES1   0.0000
    23 C4      -4.2435   2.2559   2.1417   C.2       1 RES1   0.0000
    24 C5      -2.6455   3.7589   3.1969   C.3       1 RES1   0.0000
    25 H8      -2.5327   4.1549   4.0971   H         1 RES1   0.0000
    26 H9      -2.9371   4.4789   2.5833   H         1 RES1   0.0000
    27 C6      -1.3031   3.2122   2.7213   C.3       1 RES1   0.0000
    28 H10     -0.9528   2.5773   3.3951   H         1 RES1   0.0000
    29 H11     -1.4348   2.7161   1.8748   H         1 RES1   0.0000
    30 C7      -0.2827   4.3208   2.4990   C.3       1 RES1   0.0000
    31 H12      0.0188   4.6619   3.3782   H         1 RES1   0.0000
    32 H13     -0.7191   5.0685   2.0186   H         1 RES1   0.0000
    33 C8       0.9352   3.8619   1.7007   C.3       1 RES1   0.0000
    34 H14      1.5614   4.6233   1.6107   H         1 RES1   0.0000
    35 H15      0.6406   3.6068   0.7907   H         1 RES1   0.0000
    36 C9       1.6844   2.6815   2.3229   C.3       1 RES1   0.0000
    37 H16      1.0406   1.9241   2.4335   H         1 RES1   0.0000
    38 C10      2.8029   2.2262   1.3934   C.2       1 RES1   0.0000
    39 C11      2.7635   2.0689   4.3872   C.2       1 RES1   0.0000
    40 C12      4.0593   1.6684   6.3401   C.3       1 RES1   0.0000
    41 H17      4.4427   0.9180   5.8203   H         1 RES1   0.0000
    42 H18      3.4035   1.2994   6.9834   H         1 RES1   0.0000
    43 C13      5.1506   2.3941   7.0769   C.ar      1 RES1   0.0000
    44 C14      5.8906   3.3951   6.4692   C.ar      1 RES1   0.0000
    45 H19      5.6789   3.6550   5.5802   H         1 RES1   0.0000
    46 C15      6.9346   4.0273   7.1309   C.ar      1 RES1   0.0000
    47 H20      7.4301   4.7231   6.7151   H         1 RES1   0.0000
    48 C16      7.2290   3.6092   8.4166   C.ar      1 RES1   0.0000
    49 C17      6.5137   2.6122   9.0514   C.ar      1 RES1   0.0000
    50 H21      6.7398   2.3429   9.9339   H         1 RES1   0.0000
    51 C18      5.4647   2.0136   8.3816   C.ar      1 RES1   0.0000
    52 H22      4.9533   1.3386   8.8123   H         1 RES1   0.0000
@<TRIPOS>BOND
     1     1    16    2
     2     2    23    2
     3     3    38    2
     4     4     5    1
     5     6    39    2
     6     7    39    1
     7     8    15    2
     8     9    15    2
     9    10    16   am
    10    11    12    1
    11    13    14    1
    12    15    48    1
    13    16    17    1
    14    17    18    1
    15    19    17    1
    16    20    10    1
    17    21    20    1
    18    22    20    1
    19    23    10   am
    20    24    11    1
    21    25    24    1
    22    26    24    1
    23    27    24    1
    24    28    27    1
    25    29    27    1
    26    30    27    1
    27    31    30    1
    28    32    30    1
    29    33    30    1
    30    34    33    1
    31    35    33    1
    32    36    13    1
    33    37    36    1
    34    38     4    1
    35    39    13   am
    36    40     7    1
    37    41    40    1
    38    42    40    1
    39    43    40    1
    40    44    43   ar
    41    45    44    1
    42    46    44   ar
    43    47    46    1
    44    48    46   ar
    45    49    48   ar
    46    50    49    1
    47    51    43   ar
    48    52    51    1
    49    11    23   am
    50    17    20    1
    51    33    36    1
    52    36    38    1
    53    49    51   ar
@<TRIPOS>SUBSTRUCTURE
     1 RES1        1 GROUP             0 ****  ****    0  
@<TRIPOS>CRYSIN
   12.3818    5.0253   16.7368   90.0000  110.5490   90.0000     4     1
