@<TRIPOS>MOLECULE
02
    34    37     1     0     0
SMALL
NO_CHARGES
****
Generated from the CSD

@<TRIPOS>ATOM
     1 S1       4.1262   1.3399   8.5949   S.o2      1 RES2   0.0000
     2 O1       4.9496   2.4168   9.0274   O.2       1 RES2   0.0000
     3 O2       3.9450   1.1264   7.1996   O.2       1 RES2   0.0000
     4 N1       4.7388  -0.0443   9.2380   N.3       1 RES2   0.0000
     5 N2       3.9390   0.4353  12.6633   N.2       1 RES2   0.0000
     6 N3       5.0824  -0.2636  12.8407   N.2       1 RES2   0.0000
     7 C1       2.5656   1.5067   9.3779   C.ar      1 RES2   0.0000
     8 C2       1.4773   1.9378   8.6334   C.ar      1 RES2   0.0000
     9 H2       1.5670   2.1248   7.7070   H         1 RES2   0.0000
    10 C3       0.2615   2.0898   9.2700   C.ar      1 RES2   0.0000
    11 H3      -0.4925   2.4049   8.7856   H         1 RES2   0.0000
    12 C4       0.1413   1.7836  10.6037   C.ar      1 RES2   0.0000
    13 H4      -0.7003   1.8917  11.0311   H         1 RES2   0.0000
    14 C5       1.2190   1.3228  11.3399   C.ar      1 RES2   0.0000
    15 H5       1.1082   1.1009  12.2565   H         1 RES2   0.0000
    16 C6       2.4715   1.1847  10.7305   C.ar      1 RES2   0.0000
    17 C7       3.6479   0.5978  11.3502   C.2       1 RES2   0.0000
    18 C8       4.6616  -0.0276  10.6585   C.2       1 RES2   0.0000
    19 C9       4.3879  -1.3105   8.5736   C.3       1 RES2   0.0000
    20 H6       4.9025  -2.0428   8.9722   H         1 RES2   0.0000
    21 H7       4.5967  -1.2469   7.6186   H         1 RES2   0.0000
    22 H8       3.4299  -1.4849   8.6873   H         1 RES2   0.0000
    23 C10      5.5396  -0.5721  11.6247   C.2       1 RES2   0.0000
    24 C20      6.8043  -1.2975  11.4948   C.ar      1 RES2   0.0000
    25 C21      7.4493  -1.7598  12.6428   C.ar      1 RES2   0.0000
    26 H15      7.0179  -1.6878  13.4861   H         1 RES2   0.0000
    27 C22      8.7034  -2.3182  12.5627   C.ar      1 RES2   0.0000
    28 H16      9.1364  -2.6176  13.3536   H         1 RES2   0.0000
    29 C23      9.3392  -2.4475  11.3475   C.ar      1 RES2   0.0000
    30 H17     10.2115  -2.8201  11.2990   H         1 RES2   0.0000
    31 C24      8.6946  -2.0304  10.2032   C.ar      1 RES2   0.0000
    32 H18      9.1158  -2.1408   9.3584   H         1 RES2   0.0000
    33 C25      7.4447  -1.4534  10.2717   C.ar      1 RES2   0.0000
    34 H19      7.0169  -1.1610   9.4752   H         1 RES2   0.0000
@<TRIPOS>BOND
     1     1     2    2
     2     3     1    2
     3     4     1    1
     4     5     6    1
     5     6    23    2
     6     7     1    1
     7     8     7   ar
     8     9     8    1
     9    10     8   ar
    10    11    10    1
    11    12    10   ar
    12    13    12    1
    13    14    12   ar
    14    15    14    1
    15    16     7   ar
    16    17     5    1
    17    18     4    1
    18    19     4    1
    19    20    19    1
    20    21    19    1
    21    22    19    1
    22    23    18    1
    23    24    23    1
    24    25    24   ar
    25    26    25    1
    26    27    25   ar
    27    28    27    1
    28    29    27   ar
    29    30    29    1
    30    31    29   ar
    31    32    31    1
    32    33    24   ar
    33    34    33    1
    34    14    16   ar
    35    16    17    1
    36    17    18    2
    37    31    33   ar
@<TRIPOS>SUBSTRUCTURE
     1 RES2        1 GROUP             0 ****  ****    0  
