@<TRIPOS>MOLECULE
ZILWIC
    55    59     1     0     0
SMALL
NO_CHARGES
****
Generated from the CSD

@<TRIPOS>ATOM
     1 Cl1      0.2875   3.9406  15.8256   Cl        1 RES1   0.0000
     2 Cl2      3.8038   2.9195  19.7901   Cl        1 RES1   0.0000
     3 S1       4.1262   1.3399   8.5949   S.o2      1 RES1   0.0000
     4 O1       4.9496   2.4168   9.0274   O.2       1 RES1   0.0000
     5 O2       3.9450   1.1264   7.1996   O.2       1 RES1   0.0000
     6 O3       5.2433   2.7658  13.1378   O.2       1 RES1   0.0000
     7 N1       4.7388  -0.0443   9.2380   N.3       1 RES1   0.0000
     8 N2       3.9390   0.4353  12.6633   N.pl3     1 RES1   0.0000
     9 N3       5.0824  -0.2636  12.8407   N.2       1 RES1   0.0000
    10 N4       4.2410   3.1342  15.1029   N.am      1 RES1   0.0000
    11 H1       4.6985   3.8815  15.2316   H         1 RES1   0.0000
    12 N5       3.1909   2.8225  15.9355   N.2       1 RES1   0.0000
    13 C1       2.5656   1.5067   9.3779   C.ar      1 RES1   0.0000
    14 C2       1.4773   1.9378   8.6334   C.ar      1 RES1   0.0000
    15 H2       1.5670   2.1248   7.7070   H         1 RES1   0.0000
    16 C3       0.2615   2.0898   9.2700   C.ar      1 RES1   0.0000
    17 H3      -0.4925   2.4049   8.7856   H         1 RES1   0.0000
    18 C4       0.1413   1.7836  10.6037   C.ar      1 RES1   0.0000
    19 H4      -0.7003   1.8917  11.0311   H         1 RES1   0.0000
    20 C5       1.2190   1.3228  11.3399   C.ar      1 RES1   0.0000
    21 H5       1.1082   1.1009  12.2565   H         1 RES1   0.0000
    22 C6       2.4715   1.1847  10.7305   C.ar      1 RES1   0.0000
    23 C7       3.6479   0.5978  11.3502   C.2       1 RES1   0.0000
    24 C8       4.6616  -0.0276  10.6585   C.2       1 RES1   0.0000
    25 C9       4.3879  -1.3105   8.5736   C.3       1 RES1   0.0000
    26 H6       4.9025  -2.0428   8.9722   H         1 RES1   0.0000
    27 H7       4.5967  -1.2469   7.6186   H         1 RES1   0.0000
    28 H8       3.4299  -1.4849   8.6873   H         1 RES1   0.0000
    29 C10      5.5396  -0.5721  11.6247   C.2       1 RES1   0.0000
    30 C11      3.5103   1.2241  13.7938   C.3       1 RES1   0.0000
    31 H9       3.5364   0.6692  14.6132   H         1 RES1   0.0000
    32 H10      2.5777   1.5243  13.6543   H         1 RES1   0.0000
    33 C12      4.4131   2.4309  13.9665   C.2       1 RES1   0.0000
    34 C13      3.0987   3.5482  16.9689   C.2       1 RES1   0.0000
    35 H11      3.7658   4.2002  17.1523   H         1 RES1   0.0000
    36 C14      1.9608   3.3837  17.8862   C.ar      1 RES1   0.0000
    37 C15      0.6451   3.5768  17.4813   C.ar      1 RES1   0.0000
    38 C16     -0.4017   3.5205  18.3704   C.ar      1 RES1   0.0000
    39 H12     -1.2905   3.6824  18.0770   H         1 RES1   0.0000
    40 C17     -0.1470   3.2266  19.6913   C.ar      1 RES1   0.0000
    41 H13     -0.8702   3.1682  20.3055   H         1 RES1   0.0000
    42 C18      1.1369   3.0162  20.1369   C.ar      1 RES1   0.0000
    43 H14      1.3081   2.8041  21.0478   H         1 RES1   0.0000
    44 C19      2.1648   3.1193  19.2351   C.ar      1 RES1   0.0000
    45 C20      6.8043  -1.2975  11.4948   C.ar      1 RES1   0.0000
    46 C21      7.4493  -1.7598  12.6428   C.ar      1 RES1   0.0000
    47 H15      7.0179  -1.6878  13.4861   H         1 RES1   0.0000
    48 C22      8.7034  -2.3182  12.5627   C.ar      1 RES1   0.0000
    49 H16      9.1364  -2.6176  13.3536   H         1 RES1   0.0000
    50 C23      9.3392  -2.4475  11.3475   C.ar      1 RES1   0.0000
    51 H17     10.2115  -2.8201  11.2990   H         1 RES1   0.0000
    52 C24      8.6946  -2.0304  10.2032   C.ar      1 RES1   0.0000
    53 H18      9.1158  -2.1408   9.3584   H         1 RES1   0.0000
    54 C25      7.4447  -1.4534  10.2717   C.ar      1 RES1   0.0000
    55 H19      7.0169  -1.1610   9.4752   H         1 RES1   0.0000
@<TRIPOS>BOND
     1     1    37    1
     2     2    44    1
     3     3     4    2
     4     5     3    2
     5     6    33    2
     6     7     3    1
     7     8     9    1
     8     9    29    2
     9    10    11    1
    10    12    10    1
    11    13     3    1
    12    14    13   ar
    13    15    14    1
    14    16    14   ar
    15    17    16    1
    16    18    16   ar
    17    19    18    1
    18    20    18   ar
    19    21    20    1
    20    22    13   ar
    21    23     8    1
    22    24     7    1
    23    25     7    1
    24    26    25    1
    25    27    25    1
    26    28    25    1
    27    29    24    1
    28    30     8    1
    29    31    30    1
    30    32    30    1
    31    33    10   am
    32    34    12    2
    33    35    34    1
    34    36    34    1
    35    37    36   ar
    36    38    37   ar
    37    39    38    1
    38    40    38   ar
    39    41    40    1
    40    42    40   ar
    41    43    42    1
    42    44    36   ar
    43    45    29    1
    44    46    45   ar
    45    47    46    1
    46    48    46   ar
    47    49    48    1
    48    50    48   ar
    49    51    50    1
    50    52    50   ar
    51    53    52    1
    52    54    45   ar
    53    55    54    1
    54    20    22   ar
    55    22    23    1
    56    23    24    2
    57    30    33    1
    58    42    44   ar
    59    52    54   ar
@<TRIPOS>SUBSTRUCTURE
     1 RES1        1 GROUP             0 ****  ****    0  
@<TRIPOS>CRYSIN
    7.8666   10.8263   14.7797   89.5000   75.0290   74.5880     2     1
