@<TRIPOS>MOLECULE
01
    11    11     1     0     0
SMALL
NO_CHARGES
****
Generated from the CSD

@<TRIPOS>ATOM
     1 Cl1      0.2875   3.9406  15.8256   Cl        1 RES1   0.0000
     2 Cl2      3.8038   2.9195  19.7901   Cl        1 RES1   0.0000
     3 C14      1.9608   3.3837  17.8862   C.ar      1 RES1   0.0000
     4 C15      0.6451   3.5768  17.4813   C.ar      1 RES1   0.0000
     5 C16     -0.4017   3.5205  18.3704   C.ar      1 RES1   0.0000
     6 H12     -1.2905   3.6824  18.0770   H         1 RES1   0.0000
     7 C17     -0.1470   3.2266  19.6913   C.ar      1 RES1   0.0000
     8 H13     -0.8702   3.1682  20.3055   H         1 RES1   0.0000
     9 C18      1.1369   3.0162  20.1369   C.ar      1 RES1   0.0000
    10 H14      1.3081   2.8041  21.0478   H         1 RES1   0.0000
    11 C19      2.1648   3.1193  19.2351   C.ar      1 RES1   0.0000
@<TRIPOS>BOND
     1     1     4    1
     2     2    11    1
     3     4     3   ar
     4     5     4   ar
     5     6     5    1
     6     7     5   ar
     7     8     7    1
     8     9     7   ar
     9    10     9    1
    10    11     3   ar
    11     9    11   ar
@<TRIPOS>SUBSTRUCTURE
     1 RES1        1 GROUP             0 ****  ****    0  
