@<TRIPOS>MOLECULE
ZINYOO
    62    65     1     0     0
SMALL
NO_CHARGES
****
Generated from the CSD

@<TRIPOS>ATOM
     1 S1      -1.1523   3.6176  10.3524   S.3       1 RES1   0.0000
     2 O1       0.4668   5.9192  13.7658   O.3       1 RES1   0.0000
     3 O2       1.3299   3.9969  14.5281   O.2       1 RES1   0.0000
     4 O3       4.5217  15.5615  21.5621   O.3       1 RES1   0.0000
     5 O4       5.5203  16.7418  23.1179   O.2       1 RES1   0.0000
     6 O5      -1.0874  -3.0719   9.6898   O.3       1 RES1   0.0000
     7 N1       0.1358   2.6403  12.3358   N.2       1 RES1   0.0000
     8 O6       2.7819  12.7697  18.2898   O.3       1 RES1   0.0000
     9 C1      -1.8043  -3.4482   8.5165   C.3       1 RES1   0.0000
    10 H1      -2.6927  -3.0869   8.5544   H         1 RES1   0.0000
    11 H2      -1.8499  -4.4056   8.4626   H         1 RES1   0.0000
    12 H3      -1.3522  -3.1055   7.7418   H         1 RES1   0.0000
    13 C2      -0.9439  -1.7451   9.9681   C.ar      1 RES1   0.0000
    14 C3      -0.2437  -1.4483  11.1225   C.ar      1 RES1   0.0000
    15 H4       0.1169  -2.1362  11.6338   H         1 RES1   0.0000
    16 C4      -0.0771  -0.1521  11.5174   C.ar      1 RES1   0.0000
    17 H5       0.3872   0.0296  12.3024   H         1 RES1   0.0000
    18 C5      -0.5879   0.8988  10.7692   C.ar      1 RES1   0.0000
    19 C6      -0.4589   2.2799  11.2324   C.2       1 RES1   0.0000
    20 C7       0.0621   3.9988  12.5162   C.2       1 RES1   0.0000
    21 C8       0.6922   4.6007  13.7109   C.2       1 RES1   0.0000
    22 C9       1.0752   6.6090  14.8893   C.3       1 RES1   0.0000
    23 H6       2.0340   6.4645  14.8871   H         1 RES1   0.0000
    24 H7       0.7162   6.2655  15.7223   H         1 RES1   0.0000
    25 C10      0.7779   8.0793  14.7710   C.3       1 RES1   0.0000
    26 H8      -0.1815   8.2200  14.7844   H         1 RES1   0.0000
    27 H9       1.1212   8.4142  13.9281   H         1 RES1   0.0000
    28 C11      1.4162   8.8292  15.9119   C.3       1 RES1   0.0000
    29 H10      2.3637   8.6213  15.9192   H         1 RES1   0.0000
    30 H11      1.0404   8.4960  16.7418   H         1 RES1   0.0000
    31 C12      1.2605  10.3435  15.8927   C.3       1 RES1   0.0000
    32 H12      1.6253  10.6986  15.0666   H         1 RES1   0.0000
    33 H13      0.3196  10.5756  15.9315   H         1 RES1   0.0000
    34 C13      1.9861  10.9584  17.0756   C.3       1 RES1   0.0000
    35 H14      1.5867  10.6141  17.8896   H         1 RES1   0.0000
    36 H15      2.9086  10.6580  17.0560   H         1 RES1   0.0000
    37 C14      1.9816  12.4567  17.1465   C.3       1 RES1   0.0000
    38 H16      2.3641  12.8408  16.3423   H         1 RES1   0.0000
    39 H17      1.0783  12.7933  17.2558   H         1 RES1   0.0000
    40 C15      2.9379  14.0508  18.6972   C.ar      1 RES1   0.0000
    41 C16      2.4995  15.1666  17.9799   C.ar      1 RES1   0.0000
    42 H18      2.0591  15.0649  17.1670   H         1 RES1   0.0000
    43 C17      2.7299  16.4167  18.4981   C.ar      1 RES1   0.0000
    44 H19      2.4390  17.1577  18.0180   H         1 RES1   0.0000
    45 C18      3.3827  16.6237  19.7144   C.ar      1 RES1   0.0000
    46 C19      3.6153  17.9048  20.3368   C.2       1 RES1   0.0000
    47 C20      3.1428  19.1633  19.6658   C.3       1 RES1   0.0000
    48 H20      3.3804  19.9214  20.2038   H         1 RES1   0.0000
    49 H21      2.1887  19.1310  19.5615   H         1 RES1   0.0000
    50 H22      3.5563  19.2401  18.8029   H         1 RES1   0.0000
    51 C21     -1.4459  -0.7289   9.1995   C.ar      1 RES1   0.0000
    52 H23     -1.9112  -0.9179   8.4168   H         1 RES1   0.0000
    53 C22     -1.2555   0.5841   9.5985   C.ar      1 RES1   0.0000
    54 H24     -1.5843   1.2716   9.0658   H         1 RES1   0.0000
    55 C23     -0.5933   4.6794  11.5531   C.2       1 RES1   0.0000
    56 H25     -0.7206   5.6002  11.5477   H         1 RES1   0.0000
    57 C24      3.6152  14.2123  19.8888   C.ar      1 RES1   0.0000
    58 H26      3.9206  13.4701  20.3594   H         1 RES1   0.0000
    59 C25      3.8313  15.4707  20.3707   C.ar      1 RES1   0.0000
    60 C26      4.8202  16.7774  22.1358   C.2       1 RES1   0.0000
    61 C27      4.2868  17.9509  21.4927   C.2       1 RES1   0.0000
    62 H27      4.4157  18.7777  21.8991   H         1 RES1   0.0000
@<TRIPOS>BOND
     1     1    19    1
     2     2    21    1
     3     3    21    2
     4     4    59    1
     5     5    60    2
     6     6     9    1
     7     7    19    2
     8     8    37    1
     9     9    10    1
    10    11     9    1
    11    12     9    1
    12    13     6    1
    13    14    13   ar
    14    15    14    1
    15    16    14   ar
    16    17    16    1
    17    18    16   ar
    18    19    18    1
    19    20     7    1
    20    21    20    1
    21    22     2    1
    22    23    22    1
    23    24    22    1
    24    25    22    1
    25    26    25    1
    26    27    25    1
    27    28    25    1
    28    29    28    1
    29    30    28    1
    30    31    28    1
    31    32    31    1
    32    33    31    1
    33    34    31    1
    34    35    34    1
    35    36    34    1
    36    37    34    1
    37    38    37    1
    38    39    37    1
    39    40     8    1
    40    41    40   ar
    41    42    41    1
    42    43    41   ar
    43    44    43    1
    44    45    43   ar
    45    46    45    1
    46    47    46    1
    47    48    47    1
    48    49    47    1
    49    50    47    1
    50    51    13   ar
    51    52    51    1
    52    53    18   ar
    53    54    53    1
    54    55     1    1
    55    56    55    1
    56    57    40   ar
    57    58    57    1
    58    59    45   ar
    59    60     4    1
    60    61    46    2
    61    62    61    1
    62    20    55    2
    63    51    53   ar
    64    57    59   ar
    65    60    61    1
@<TRIPOS>SUBSTRUCTURE
     1 RES1        1 GROUP             0 ****  ****    0  
@<TRIPOS>CRYSIN
    7.7231   10.4872   30.0660   90.0000   93.0430   90.0000   231     1
