@<TRIPOS>MOLECULE
02
    19    20     1     0     0
SMALL
NO_CHARGES
****
Generated from the CSD

@<TRIPOS>ATOM
     1 O3       4.5217  15.5615  21.5621   O.3       1 RES2   0.0000
     2 O4       5.5203  16.7418  23.1179   O.2       1 RES2   0.0000
     3 C15      2.9379  14.0508  18.6972   C.ar      1 RES2   0.0000
     4 C16      2.4995  15.1666  17.9799   C.ar      1 RES2   0.0000
     5 H18      2.0591  15.0649  17.1670   H         1 RES2   0.0000
     6 C17      2.7299  16.4167  18.4981   C.ar      1 RES2   0.0000
     7 H19      2.4390  17.1577  18.0180   H         1 RES2   0.0000
     8 C18      3.3827  16.6237  19.7144   C.ar      1 RES2   0.0000
     9 C19      3.6153  17.9048  20.3368   C.2       1 RES2   0.0000
    10 C20      3.1428  19.1633  19.6658   C.3       1 RES2   0.0000
    11 H20      3.3804  19.9214  20.2038   H         1 RES2   0.0000
    12 H21      2.1887  19.1310  19.5615   H         1 RES2   0.0000
    13 H22      3.5563  19.2401  18.8029   H         1 RES2   0.0000
    14 C24      3.6152  14.2123  19.8888   C.ar      1 RES2   0.0000
    15 H26      3.9206  13.4701  20.3594   H         1 RES2   0.0000
    16 C25      3.8313  15.4707  20.3707   C.ar      1 RES2   0.0000
    17 C26      4.8202  16.7774  22.1358   C.2       1 RES2   0.0000
    18 C27      4.2868  17.9509  21.4927   C.2       1 RES2   0.0000
    19 H27      4.4157  18.7777  21.8991   H         1 RES2   0.0000
@<TRIPOS>BOND
     1     1    16    1
     2     2    17    2
     3     4     3   ar
     4     5     4    1
     5     6     4   ar
     6     7     6    1
     7     8     6   ar
     8     9     8    1
     9    10     9    1
    10    11    10    1
    11    12    10    1
    12    13    10    1
    13    14     3   ar
    14    15    14    1
    15    16     8   ar
    16    17     1    1
    17    18     9    2
    18    19    18    1
    19    14    16   ar
    20    17    18    1
@<TRIPOS>SUBSTRUCTURE
     1 RES2        1 GROUP             0 ****  ****    0  
