@<TRIPOS>MOLECULE
01
    21    22     1     0     0
SMALL
NO_CHARGES
****
Generated from the CSD

@<TRIPOS>ATOM
     1 S1      -1.1523   3.6176  10.3524   S.3       1 RES1   0.0000
     2 O5      -1.0874  -3.0719   9.6898   O.3       1 RES1   0.0000
     3 N1       0.1358   2.6403  12.3358   N.2       1 RES1   0.0000
     4 C1      -1.8043  -3.4482   8.5165   C.3       1 RES1   0.0000
     5 H1      -2.6927  -3.0869   8.5544   H         1 RES1   0.0000
     6 H2      -1.8499  -4.4056   8.4626   H         1 RES1   0.0000
     7 H3      -1.3522  -3.1055   7.7418   H         1 RES1   0.0000
     8 C2      -0.9439  -1.7451   9.9681   C.ar      1 RES1   0.0000
     9 C3      -0.2437  -1.4483  11.1225   C.ar      1 RES1   0.0000
    10 H4       0.1169  -2.1362  11.6338   H         1 RES1   0.0000
    11 C4      -0.0771  -0.1521  11.5174   C.ar      1 RES1   0.0000
    12 H5       0.3872   0.0296  12.3024   H         1 RES1   0.0000
    13 C5      -0.5879   0.8988  10.7692   C.ar      1 RES1   0.0000
    14 C6      -0.4589   2.2799  11.2324   C.2       1 RES1   0.0000
    15 C7       0.0621   3.9988  12.5162   C.2       1 RES1   0.0000
    16 C21     -1.4459  -0.7289   9.1995   C.ar      1 RES1   0.0000
    17 H23     -1.9112  -0.9179   8.4168   H         1 RES1   0.0000
    18 C22     -1.2555   0.5841   9.5985   C.ar      1 RES1   0.0000
    19 H24     -1.5843   1.2716   9.0658   H         1 RES1   0.0000
    20 C23     -0.5933   4.6794  11.5531   C.2       1 RES1   0.0000
    21 H25     -0.7206   5.6002  11.5477   H         1 RES1   0.0000
@<TRIPOS>BOND
     1     1    14    1
     2     2     4    1
     3     3    14    2
     4     4     5    1
     5     6     4    1
     6     7     4    1
     7     8     2    1
     8     9     8   ar
     9    10     9    1
    10    11     9   ar
    11    12    11    1
    12    13    11   ar
    13    14    13    1
    14    15     3    1
    15    16     8   ar
    16    17    16    1
    17    18    13   ar
    18    19    18    1
    19    20     1    1
    20    21    20    1
    21    15    20    2
    22    16    18   ar
@<TRIPOS>SUBSTRUCTURE
     1 RES1        1 GROUP             0 ****  ****    0  
