# MOL_START
# Creating user name: Hermes
# Creation time: Fri Jan  7 15:44:46 2022

@<TRIPOS>MOLECULE
6HAX
    68    71     1     0     1
SMALL
NO_CHARGES
****
Generated from the CSD

@<TRIPOS>ATOM
     1 N1     -36.5596  14.5673 -33.2664   N.am      1 FWZ301   0.0000
     2 C4     -35.9926  14.3213 -30.9394   C.2       1 FWZ301   0.0000
     3 C5     -35.7996  17.4014 -30.7804   C.3       1 FWZ301   0.0000
     4 C6     -36.2906  17.5074 -33.2094   C.3       1 FWZ301   0.0000
     5 C7     -38.0036  16.6044 -31.6584   C.3       1 FWZ301   0.0000
     6 C10    -34.9866  13.1953 -29.0435   C.3       1 FWZ301   0.0000
     7 C13    -33.5447  14.6593 -30.3485   C.3       1 FWZ301   0.0000
     8 C15    -36.0256  13.6343 -28.0105   C.2       1 FWZ301   0.0000
     9 C20    -37.3466  13.5213 -23.7856   C.ar      1 FWZ301   0.0000
    10 C21    -36.7126  13.4713 -22.5466   C.ar      1 FWZ301   0.0000
    11 C22    -35.5096  12.7873 -22.3996   C.ar      1 FWZ301   0.0000
    12 C24    -35.5986  12.1813 -24.7286   C.ar      1 FWZ301   0.0000
    13 C26    -35.3406  12.1983 -19.8846   C.2       1 FWZ301   0.0000
    14 C28    -33.2807  12.6543 -19.2497   C.2       1 FWZ301   0.0000
    15 C2     -35.8996  15.2483 -32.1624   C.3       1 FWZ301   0.0000
    16 C3     -36.4936  16.6754 -31.9424   C.3       1 FWZ301   0.0000
    17 N8     -34.8946  14.1123 -30.1865   N.am      1 FWZ301   0.0000
    18 O9     -37.0526  13.7693 -30.6844   O.2       1 FWZ301   0.0000
    19 C11    -33.5737  13.2413 -28.4285   C.3       1 FWZ301   0.0000
    20 C12    -32.6757  13.6733 -29.5775   C.3       1 FWZ301   0.0000
    21 O14    -32.2987  12.5483 -30.3875   O.3       1 FWZ301   0.0000
    22 O16    -36.2836  14.8283 -27.8265   O.2       1 FWZ301   0.0000
    23 N17    -36.6046  12.6453 -27.3285   N.am      1 FWZ301   0.0000
    24 C18    -37.5156  12.8893 -26.2205   C.3       1 FWZ301   0.0000
    25 C19    -36.7986  12.8703 -24.8966   C.ar      1 FWZ301   0.0000
    26 C23    -34.9546  12.1543 -23.5056   C.ar      1 FWZ301   0.0000
    27 C25    -34.8636  12.6863 -21.0756   C.2       1 FWZ301   0.0000
    28 N27    -34.4307  12.2183 -18.8467   N.2       1 FWZ301   0.0000
    29 S29    -33.1847  13.1133 -20.9016   S.3       1 FWZ301   0.0000
    30 C30    -36.7206  11.6952 -19.6066   C.3       1 FWZ301   0.0000
    31 C31    -36.1086  14.0723 -34.4244   C.2       1 FWZ301   0.0000
    32 C32    -37.1896  13.4433 -35.3344   C.3       1 FWZ301   0.0000
    33 O33    -34.9356  14.0833 -34.7714   O.2       1 FWZ301   0.0000
    34 F34    -38.4126  13.3343 -34.6474   F         1 FWZ301   0.0000
    35 C35    -37.3286  13.7583 -36.7693   C.3       1 FWZ301   0.0000
    36 C36    -36.9396  12.3763 -36.3253   C.3       1 FWZ301   0.0000
    37 H21    -31.7857  12.8655 -31.1763   H         1 FWZ301   0.0000
    38 H22    -36.4022  11.6863 -27.5923   H         1 FWZ301   0.0000
    39 H24    -32.4244  12.7259 -18.5807   H         1 FWZ301   0.0000
    40 H25    -31.7884  14.1744 -29.1935   H         1 FWZ301   0.0000
    41 H32    -35.2092  12.1876 -29.3911   H         1 FWZ301   0.0000
    42 H33    -38.2829  12.1166 -26.2176   H         1 FWZ301   0.0000
    43 H34    -37.9824  13.8639 -26.3553   H         1 FWZ301   0.0000
    44 H35    -33.2818  12.2592 -28.0594   H         1 FWZ301   0.0000
    45 H36    -33.5312  13.9627 -27.6138   H         1 FWZ301   0.0000
    46 H37    -35.2251  17.6071 -33.4114   H         1 FWZ301   0.0000
    47 H38    -36.7747  17.0126 -34.0501   H         1 FWZ301   0.0000
    48 H39    -36.7274  18.4950 -33.0690   H         1 FWZ301   0.0000
    49 H40    -34.8471  15.3596 -32.4189   H         1 FWZ301   0.0000
    50 H41    -36.2395  18.3897 -30.6554   H         1 FWZ301   0.0000
    51 H42    -35.9300  16.8275 -29.8641   H         1 FWZ301   0.0000
    52 H43    -34.7372  17.5018 -30.9978   H         1 FWZ301   0.0000
    53 H44    -37.1605  13.9700 -21.6884   H         1 FWZ301   0.0000
    54 H45    -38.4032  17.6131 -31.5647   H         1 FWZ301   0.0000
    55 H46    -38.5034  16.0907 -32.4783   H         1 FWZ301   0.0000
    56 H47    -38.1733  16.0592 -30.7311   H         1 FWZ301   0.0000
    57 H48    -37.5579  14.4437 -33.1311   H         1 FWZ301   0.0000
    58 H49    -34.0038  11.6324 -23.4079   H         1 FWZ301   0.0000
    59 H50    -36.9379  10.8516 -20.2601   H         1 FWZ301   0.0000
    60 H51    -36.7883  11.3764 -18.5675   H         1 FWZ301   0.0000
    61 H52    -37.4409  12.4912 -19.7897   H         1 FWZ301   0.0000
    62 H53    -35.1607  11.6551 -25.5755   H         1 FWZ301   0.0000
    63 H55    -33.4744  15.6587 -29.9217   H         1 FWZ301   0.0000
    64 H56    -33.2601  14.6924 -31.3991   H         1 FWZ301   0.0000
    65 H57    -36.5984  14.3996 -37.2607   H         1 FWZ301   0.0000
    66 H58    -38.3144  13.9374 -37.1959   H         1 FWZ301   0.0000
    67 H59    -37.6427  11.5512 -36.4287   H         1 FWZ301   0.0000
    68 H60    -35.9267  12.0134 -36.4934   H         1 FWZ301   0.0000
@<TRIPOS>BOND
     1     6     8    1
     2     9    10   ar
     3    10    11   ar
     4     1    15    1
     5     2    15    1
     6     3    16    1
     7     4    16    1
     8     5    16    1
     9    15    16    1
    10     2    17   am
    11     6    17    1
    12     7    17    1
    13     2    18    2
    14     6    19    1
    15     7    20    1
    16    19    20    1
    17    20    21    1
    18     8    22    2
    19     8    23   am
    20    23    24    1
    21     9    25   ar
    22    12    25   ar
    23    24    25    1
    24    11    26   ar
    25    12    26   ar
    26    11    27    1
    27    13    27    2
    28    13    28    1
    29    14    28    2
    30    14    29    1
    31    27    29    1
    32    13    30    1
    33     1    31   am
    34    31    32    1
    35    31    33    2
    36    32    34    1
    37    32    35    1
    38    32    36    1
    39    35    36    1
    40    21    37    1
    41    23    38    1
    42    14    39    1
    43    20    40    1
    44     6    41    1
    45    24    42    1
    46    24    43    1
    47    19    44    1
    48    19    45    1
    49     4    46    1
    50     4    47    1
    51     4    48    1
    52    15    49    1
    53     3    50    1
    54     3    51    1
    55     3    52    1
    56    10    53    1
    57     5    54    1
    58     5    55    1
    59     5    56    1
    60     1    57    1
    61    26    58    1
    62    30    59    1
    63    30    60    1
    64    30    61    1
    65    12    62    1
    66     7    63    1
    67     7    64    1
    68    35    65    1
    69    35    66    1
    70    36    67    1
    71    36    68    1
@<TRIPOS>SUBSTRUCTURE
     1 FWZ301      1 GROUP             0 B     FWZ     0  
@<TRIPOS>SET
CCDC_LIGAND STATIC ATOMS
68 1 2 3 4 5 6 7 8 9 \
10 11 12 13 14 15 16 17 18 19 \
20 21 22 23 24 25 26 27 28 29 \
30 31 32 33 34 35 36 37 38 39 \
40 41 42 43 44 45 46 47 48 49 \
50 51 52 53 54 55 56 57 58 59 \
60 61 62 63 64 65 66 67 68 
# MOL_END

