# MOL_START
# Creating user name: Hermes
# Creation time: Fri Jan  7 15:43:35 2022

@<TRIPOS>MOLECULE
6HAX
   124   131     1     0     1
SMALL
NO_CHARGES
****
Generated from the CSD

@<TRIPOS>ATOM
     1 N1     -36.5596  14.5673 -33.2664   N.am      1 FWZ301   0.0000
     2 C4     -35.9926  14.3213 -30.9394   C.2       1 FWZ301   0.0000
     3 C5     -35.7996  17.4014 -30.7804   C.3       1 FWZ301   0.0000
     4 C6     -36.2906  17.5074 -33.2094   C.3       1 FWZ301   0.0000
     5 C7     -38.0036  16.6044 -31.6584   C.3       1 FWZ301   0.0000
     6 C10    -34.9866  13.1953 -29.0435   C.3       1 FWZ301   0.0000
     7 C13    -33.5447  14.6593 -30.3485   C.3       1 FWZ301   0.0000
     8 C15    -36.0256  13.6343 -28.0105   C.2       1 FWZ301   0.0000
     9 C20    -37.3466  13.5213 -23.7856   C.ar      1 FWZ301   0.0000
    10 C21    -36.7126  13.4713 -22.5466   C.ar      1 FWZ301   0.0000
    11 C22    -35.5096  12.7873 -22.3996   C.ar      1 FWZ301   0.0000
    12 C24    -35.5986  12.1813 -24.7286   C.ar      1 FWZ301   0.0000
    13 C26    -35.3406  12.1983 -19.8846   C.2       1 FWZ301   0.0000
    14 C28    -33.2807  12.6543 -19.2497   C.2       1 FWZ301   0.0000
    15 C2     -35.8996  15.2483 -32.1624   C.3       1 FWZ301   0.0000
    16 C3     -36.4936  16.6754 -31.9424   C.3       1 FWZ301   0.0000
    17 N8     -34.8946  14.1123 -30.1865   N.am      1 FWZ301   0.0000
    18 O9     -37.0526  13.7693 -30.6844   O.2       1 FWZ301   0.0000
    19 C11    -33.5737  13.2413 -28.4285   C.3       1 FWZ301   0.0000
    20 C12    -32.6757  13.6733 -29.5775   C.3       1 FWZ301   0.0000
    21 O14    -32.2987  12.5483 -30.3875   O.3       1 FWZ301   0.0000
    22 O16    -36.2836  14.8283 -27.8265   O.2       1 FWZ301   0.0000
    23 N17    -36.6046  12.6453 -27.3285   N.am      1 FWZ301   0.0000
    24 C18    -37.5156  12.8893 -26.2205   C.3       1 FWZ301   0.0000
    25 C19    -36.7986  12.8703 -24.8966   C.ar      1 FWZ301   0.0000
    26 C23    -34.9546  12.1543 -23.5056   C.ar      1 FWZ301   0.0000
    27 C25    -34.8636  12.6863 -21.0756   C.2       1 FWZ301   0.0000
    28 N27    -34.4307  12.2183 -18.8467   N.2       1 FWZ301   0.0000
    29 S29    -33.1847  13.1133 -20.9016   S.3       1 FWZ301   0.0000
    30 C30    -36.7206  11.6952 -19.6066   C.3       1 FWZ301   0.0000
    31 C31    -36.1086  14.0723 -34.4244   C.2       1 FWZ301   0.0000
    32 C32    -37.1896  13.4433 -35.3344   C.3       1 FWZ301   0.0000
    33 O33    -34.9356  14.0833 -34.7714   O.2       1 FWZ301   0.0000
    34 F34    -38.4126  13.3343 -34.6474   F         1 FWZ301   0.0000
    35 C35    -37.3286  13.7583 -36.7693   C.3       1 FWZ301   0.0000
    36 C36    -36.9396  12.3763 -36.3253   C.3       1 FWZ301   0.0000
    37 O37    -38.5396  14.1703 -24.0176   O.3       1 FWZ301   0.0000
    38 C38    -39.1756  14.8883 -22.9416   C.3       1 FWZ301   0.0000
    39 C39    -38.5656  16.2673 -22.8086   C.3       1 FWZ301   0.0000
    40 C40    -39.2396  19.9064 -27.3215   C.3       1 FWZ301   0.0000
    41 N41    -40.2746  19.3994 -28.2385   N.3       1 FWZ301   0.0000
    42 C42    -39.8126  19.4204 -29.6355   C.3       1 FWZ301   0.0000
    43 C43    -40.9916  19.3074 -30.6055   C.3       1 FWZ301   0.0000
    44 N44    -42.1386  18.6594 -29.9615   N.3       1 FWZ301   0.0000
    45 C45    -42.6646  19.4624 -28.8515   C.3       1 FWZ301   0.0000
    46 C46    -41.5286  20.1604 -28.1085   C.3       1 FWZ301   0.0000
    47 C47    -43.0606  18.0014 -30.8244   C.ar      1 FWZ301   0.0000
    48 C48    -44.3546  18.4664 -31.0544   C.ar      1 FWZ301   0.0000
    49 C49    -45.1625  17.7714 -31.9614   C.ar      1 FWZ301   0.0000
    50 N50    -44.7005  16.7094 -32.6354   N.ar      1 FWZ301   0.0000
    51 N51    -43.4636  16.2273 -32.3974   N.ar      1 FWZ301   0.0000
    52 C52    -42.6476  16.8344 -31.5274   C.ar      1 FWZ301   0.0000
    53 N53    -41.4626  16.2323 -31.3674   N.pl3     1 FWZ301   0.0000
    54 C54    -46.5385  18.2214 -32.3134   C.ar      1 FWZ301   0.0000
    55 C55    -47.3595  17.4834 -33.1854   C.ar      1 FWZ301   0.0000
    56 C56    -48.6705  17.8954 -33.4454   C.ar      1 FWZ301   0.0000
    57 C57    -49.1715  19.0374 -32.8434   C.ar      1 FWZ301   0.0000
    58 C58    -48.3995  19.7374 -31.9414   C.ar      1 FWZ301   0.0000
    59 C59    -47.0935  19.3414 -31.6844   C.ar      1 FWZ301   0.0000
    60 O60    -46.9035  16.4174 -33.8924   O.3       1 FWZ301   0.0000
    61 C61    -38.7596  17.1684 -24.0076   C.ar      1 FWZ301   0.0000
    62 C62    -37.9236  17.0904 -25.1185   C.ar      1 FWZ301   0.0000
    63 C63    -38.0706  17.9694 -26.1825   C.ar      1 FWZ301   0.0000
    64 C64    -39.0136  18.9924 -26.1385   C.ar      1 FWZ301   0.0000
    65 C65    -39.8466  19.0674 -25.0326   C.ar      1 FWZ301   0.0000
    66 C66    -39.7046  18.1894 -23.9726   C.ar      1 FWZ301   0.0000
    67 H1     -37.4400  17.8573 -27.0632   H         1 FWZ301   0.0000
    68 H2     -37.1447  16.3301 -25.1529   H         1 FWZ301   0.0000
    69 H3     -40.3426  18.2991 -23.0969   H         1 FWZ301   0.0000
    70 H4     -40.6876  18.7178 -31.4691   H         1 FWZ301   0.0000
    71 H5     -41.2823  20.3051 -30.9312   H         1 FWZ301   0.0000
    72 H6     -49.2981  17.3174 -34.1221   H         1 FWZ301   0.0000
    73 H7     -48.8149  20.6037 -31.4287   H         1 FWZ301   0.0000
    74 H8     -43.1979  18.8116 -28.1601   H         1 FWZ301   0.0000
    75 H9     -43.3490  20.2125 -29.2451   H         1 FWZ301   0.0000
    76 H10    -46.5731  15.7215 -33.2658   H         1 FWZ301   0.0000
    77 H11    -50.1762  19.3826 -33.0828   H         1 FWZ301   0.0000
    78 H12    -46.4903  19.9129 -30.9805   H         1 FWZ301   0.0000
    79 H13    -40.6244  19.8288 -24.9977   H         1 FWZ301   0.0000
    80 H14    -44.7283  19.3505 -30.5399   H         1 FWZ301   0.0000
    81 H15    -39.1354  18.5834 -29.7992   H         1 FWZ301   0.0000
    82 H16    -39.2861  20.3552 -29.8224   H         1 FWZ301   0.0000
    83 H17    -41.2387  15.4014 -31.9057   H         1 FWZ301   0.0000
    84 H18    -40.7881  16.6067 -30.7078   H         1 FWZ301   0.0000
    85 H19    -41.3872  21.1561 -28.5263   H         1 FWZ301   0.0000
    86 H20    -41.7888  20.2427 -27.0543   H         1 FWZ301   0.0000
    87 H21    -31.7857  12.8655 -31.1763   H         1 FWZ301   0.0000
    88 H22    -36.4022  11.6863 -27.5923   H         1 FWZ301   0.0000
    89 H24    -32.4244  12.7259 -18.5807   H         1 FWZ301   0.0000
    90 H25    -31.7884  14.1744 -29.1935   H         1 FWZ301   0.0000
    91 H26    -39.0362  14.3408 -22.0106   H         1 FWZ301   0.0000
    92 H27    -40.2401  14.9833 -23.1509   H         1 FWZ301   0.0000
    93 H28    -37.4956  16.1493 -22.6439   H         1 FWZ301   0.0000
    94 H29    -39.0146  16.7537 -21.9439   H         1 FWZ301   0.0000
    95 H30    -39.5480  20.8838 -26.9534   H         1 FWZ301   0.0000
    96 H31    -38.3043  20.0040 -27.8707   H         1 FWZ301   0.0000
    97 H32    -35.2092  12.1876 -29.3911   H         1 FWZ301   0.0000
    98 H33    -38.2829  12.1166 -26.2176   H         1 FWZ301   0.0000
    99 H34    -37.9824  13.8639 -26.3553   H         1 FWZ301   0.0000
   100 H35    -33.2818  12.2592 -28.0594   H         1 FWZ301   0.0000
   101 H36    -33.5312  13.9627 -27.6138   H         1 FWZ301   0.0000
   102 H37    -35.2251  17.6071 -33.4114   H         1 FWZ301   0.0000
   103 H38    -36.7747  17.0126 -34.0501   H         1 FWZ301   0.0000
   104 H39    -36.7274  18.4950 -33.0690   H         1 FWZ301   0.0000
   105 H40    -34.8471  15.3596 -32.4189   H         1 FWZ301   0.0000
   106 H41    -36.2395  18.3897 -30.6554   H         1 FWZ301   0.0000
   107 H42    -35.9300  16.8275 -29.8641   H         1 FWZ301   0.0000
   108 H43    -34.7372  17.5018 -30.9978   H         1 FWZ301   0.0000
   109 H44    -37.1605  13.9700 -21.6884   H         1 FWZ301   0.0000
   110 H45    -38.4032  17.6131 -31.5647   H         1 FWZ301   0.0000
   111 H46    -38.5034  16.0907 -32.4783   H         1 FWZ301   0.0000
   112 H47    -38.1733  16.0592 -30.7311   H         1 FWZ301   0.0000
   113 H48    -37.5579  14.4437 -33.1311   H         1 FWZ301   0.0000
   114 H49    -34.0038  11.6324 -23.4079   H         1 FWZ301   0.0000
   115 H50    -36.9379  10.8516 -20.2601   H         1 FWZ301   0.0000
   116 H51    -36.7883  11.3764 -18.5675   H         1 FWZ301   0.0000
   117 H52    -37.4409  12.4912 -19.7897   H         1 FWZ301   0.0000
   118 H53    -35.1607  11.6551 -25.5755   H         1 FWZ301   0.0000
   119 H55    -33.4744  15.6587 -29.9217   H         1 FWZ301   0.0000
   120 H56    -33.2601  14.6924 -31.3991   H         1 FWZ301   0.0000
   121 H57    -36.5984  14.3996 -37.2607   H         1 FWZ301   0.0000
   122 H58    -38.3144  13.9374 -37.1959   H         1 FWZ301   0.0000
   123 H59    -37.6427  11.5512 -36.4287   H         1 FWZ301   0.0000
   124 H60    -35.9267  12.0134 -36.4934   H         1 FWZ301   0.0000
@<TRIPOS>BOND
     1     6     8    1
     2     9    10   ar
     3    10    11   ar
     4     1    15    1
     5     2    15    1
     6     3    16    1
     7     4    16    1
     8     5    16    1
     9    15    16    1
    10     2    17   am
    11     6    17    1
    12     7    17    1
    13     2    18    2
    14     6    19    1
    15     7    20    1
    16    19    20    1
    17    20    21    1
    18     8    22    2
    19     8    23   am
    20    23    24    1
    21     9    25   ar
    22    12    25   ar
    23    24    25    1
    24    11    26   ar
    25    12    26   ar
    26    11    27    1
    27    13    27    2
    28    13    28    1
    29    14    28    2
    30    14    29    1
    31    27    29    1
    32    13    30    1
    33     1    31   am
    34    31    32    1
    35    31    33    2
    36    32    34    1
    37    32    35    1
    38    32    36    1
    39    35    36    1
    40     9    37    1
    41    37    38    1
    42    38    39    1
    43    40    41    1
    44    41    42    1
    45    42    43    1
    46    43    44    1
    47    44    45    1
    48    41    46    1
    49    45    46    1
    50    44    47    1
    51    47    48   ar
    52    48    49   ar
    53    49    50   ar
    54    50    51   ar
    55    47    52   ar
    56    51    52   ar
    57    52    53    1
    58    49    54    1
    59    54    55   ar
    60    55    56   ar
    61    56    57   ar
    62    57    58   ar
    63    54    59   ar
    64    58    59   ar
    65    55    60    1
    66    39    61    1
    67    61    62   ar
    68    62    63   ar
    69    40    64    1
    70    63    64   ar
    71    64    65   ar
    72    61    66   ar
    73    65    66   ar
    74    63    67    1
    75    62    68    1
    76    66    69    1
    77    43    70    1
    78    43    71    1
    79    56    72    1
    80    58    73    1
    81    45    74    1
    82    45    75    1
    83    60    76    1
    84    57    77    1
    85    59    78    1
    86    65    79    1
    87    48    80    1
    88    42    81    1
    89    42    82    1
    90    53    83    1
    91    53    84    1
    92    46    85    1
    93    46    86    1
    94    21    87    1
    95    23    88    1
    96    14    89    1
    97    20    90    1
    98    38    91    1
    99    38    92    1
   100    39    93    1
   101    39    94    1
   102    40    95    1
   103    40    96    1
   104     6    97    1
   105    24    98    1
   106    24    99    1
   107    19   100    1
   108    19   101    1
   109     4   102    1
   110     4   103    1
   111     4   104    1
   112    15   105    1
   113     3   106    1
   114     3   107    1
   115     3   108    1
   116    10   109    1
   117     5   110    1
   118     5   111    1
   119     5   112    1
   120     1   113    1
   121    26   114    1
   122    30   115    1
   123    30   116    1
   124    30   117    1
   125    12   118    1
   126     7   119    1
   127     7   120    1
   128    35   121    1
   129    35   122    1
   130    36   123    1
   131    36   124    1
@<TRIPOS>SUBSTRUCTURE
     1 FWZ301      1 GROUP             0 B     FWZ     0  
@<TRIPOS>SET
CCDC_LIGAND STATIC ATOMS
124 1 2 3 4 5 6 7 8 9 \
10 11 12 13 14 15 16 17 18 19 \
20 21 22 23 24 25 26 27 28 29 \
30 31 32 33 34 35 36 37 38 39 \
40 41 42 43 44 45 46 47 48 49 \
50 51 52 53 54 55 56 57 58 59 \
60 61 62 63 64 65 66 67 68 69 \
70 71 72 73 74 75 76 77 78 79 \
80 81 82 83 84 85 86 87 88 89 \
90 91 92 93 94 95 96 97 98 99 \
100 101 102 103 104 105 106 107 108 109 \
110 111 112 113 114 115 116 117 118 119 \
120 121 122 123 124 
# MOL_END

