# MOL_START
# Creating user name: Hermes
# Creation time: Tue Sep 13 15:08:52 2022

@<TRIPOS>MOLECULE
ID_2
    36    38     1     0     1
SMALL
NO_CHARGES
****
Generated from the CSD

@<TRIPOS>ATOM
     1 C1       6.9990 -11.7700   1.1070   C.ar      1 FX51501   0.0000
     2 C2       5.7740 -12.4050   1.1890   C.ar      1 FX51501   0.0000
     3 C3       4.6160 -11.6610   1.3100   C.ar      1 FX51501   0.0000
     4 C4       4.6770 -10.2700   1.3650   C.ar      1 FX51501   0.0000
     5 C5       5.9050  -9.5940   1.2990   C.ar      1 FX51501   0.0000
     6 C6       7.0700 -10.3700   1.1580   C.ar      1 FX51501   0.0000
     7 C7       5.9640  -8.1040   1.3880   C.ar      1 FX51501   0.0000
     8 C8       4.8250  -7.2830   1.4460   C.ar      1 FX51501   0.0000
     9 C9       5.0190  -5.8980   1.5150   C.ar      1 FX51501   0.0000
    10 C10      6.3400  -5.3840   1.4990   C.ar      1 FX51501   0.0000
    11 N11      7.3820  -6.2290   1.4440   N.ar      1 FX51501   0.0000
    12 N12      7.1990  -7.5770   1.4200   N.ar      1 FX51501   0.0000
    13 O13      8.3190  -9.8250   1.0460   O.3       1 FX51501   0.0000
    14 N14      6.6330  -4.0720   1.6200   N.pl3     1 FX51501   0.0000
    15 N15      3.9660  -4.9400   1.7060   N.3       1 FX51501   0.0000
    16 C16      3.7140  -4.0270   0.5900   C.3       1 FX51501   0.0000
    17 C17      2.9890  -2.7970   1.0860   C.3       1 FX51501   0.0000
    18 N18      1.7150  -3.1940   1.7410   N.2       1 FX51501   0.0000
    19 C19      1.9540  -4.1480   2.8600   C.3       1 FX51501   0.0000
    20 C20      2.7300  -5.3550   2.3720   C.3       1 FX51501   0.0000
    21 H21      7.9160 -12.3470   0.9980   H         1 FX51501   0.0000
    22 H22      5.7260 -13.4920   1.1750   H         1 FX51501   0.0000
    23 H23      3.6490 -12.1610   1.3530   H         1 FX51501   0.0000
    24 H24      3.7290  -9.7420   1.4350   H         1 FX51501   0.0000
    25 H25      3.8210  -7.7030   1.4170   H         1 FX51501   0.0000
    26 H26      8.4270  -9.0190   1.6140   H         1 FX51501   0.0000
    27 H27      5.9500  -3.3400   1.7850   H         1 FX51501   0.0000
    28 H28      7.5940  -3.7560   1.5450   H         1 FX51501   0.0000
    29 H29      3.0720  -4.5590  -0.1090   H         1 FX51501   0.0000
    30 H30      4.5810  -3.7350  -0.0010   H         1 FX51501   0.0000
    31 H31      2.7870  -2.1050   0.2690   H         1 FX51501   0.0000
    32 H32      3.6100  -2.2430   1.7870   H         1 FX51501   0.0000
    33 H35      1.0070  -4.4530   3.3040   H         1 FX51501   0.0000
    34 H36      2.4880  -3.6400   3.6620   H         1 FX51501   0.0000
    35 H37      2.9100  -6.0420   3.1890   H         1 FX51501   0.0000
    36 H38      2.1150  -5.9230   1.6760   H         1 FX51501   0.0000
@<TRIPOS>BOND
     1     1     2   ar
     2     2     3   ar
     3     3     4   ar
     4     4     5   ar
     5     1     6   ar
     6     5     6   ar
     7     5     7    1
     8     7     8   ar
     9     8     9   ar
    10     9    10   ar
    11    10    11   ar
    12     7    12   ar
    13    11    12   ar
    14     6    13    1
    15    10    14    1
    16     9    15    1
    17    15    16    1
    18    16    17    1
    19    17    18    1
    20    18    19    1
    21    15    20    1
    22    19    20    1
    23     1    21    1
    24     2    22    1
    25     3    23    1
    26     4    24    1
    27     8    25    1
    28    13    26    1
    29    14    27    1
    30    14    28    1
    31    16    29    1
    32    16    30    1
    33    17    31    1
    34    17    32    1
    35    19    33    1
    36    19    34    1
    37    20    35    1
    38    20    36    1
@<TRIPOS>SUBSTRUCTURE
     1 FX51501     1 GROUP             0 A     FX5     0  
@<TRIPOS>SET
CCDC_LIGAND STATIC ATOMS
36 1 2 3 4 5 6 7 8 9 \
10 11 12 13 14 15 16 17 18 19 \
20 21 22 23 24 25 26 27 28 29 \
30 31 32 33 34 35 36 
# MOL_END

